
---------- Begin Simulation Statistics ----------
final_tick                                 1465782000                       # Number of ticks from beginning of simulation (restored from checkpoints and never reset)
host_inst_rate                                  92710                       # Simulator instruction rate (inst/s)
host_mem_usage                               35849552                       # Number of bytes of host memory used
host_op_rate                                   170979                       # Simulator op (including micro ops) rate (op/s)
host_seconds                                     9.13                       # Real time elapsed on the host
host_tick_rate                              136928360                       # Simulator tick rate (ticks/s)
sim_freq                                 1000000000000                       # Frequency of simulated ticks
sim_insts                                      846069                       # Number of instructions simulated
sim_ops                                       1560365                       # Number of ops (including micro ops) simulated
sim_seconds                                  0.001250                       # Number of seconds simulated
sim_ticks                                  1249617500                       # Number of ticks simulated
system.cpu.committedInsts                           0                       # Number of instructions committed
system.cpu.committedOps                             0                       # Number of ops (including micro ops) committed
system.cpu.dtb.l1Accesses                           0                       # L1 TLB accesses
system.cpu.dtb.l1Misses                             0                       # L1 TLB misses
system.cpu.dtb.l2Accesses                           0                       # L2 TLB accesses
system.cpu.dtb.l2Misses                             0                       # L2 TLB misses
system.cpu.dtb.rdAccesses                           0                       # TLB accesses on read requests
system.cpu.dtb.rdMisses                             0                       # TLB misses on read requests
system.cpu.dtb.wrAccesses                           0                       # TLB accesses on write requests
system.cpu.dtb.wrMisses                             0                       # TLB misses on write requests
system.cpu.idle_fraction                            0                       # Percentage of idle cycles
system.cpu.itb.l1Accesses                           0                       # L1 TLB accesses
system.cpu.itb.l1Misses                             0                       # L1 TLB misses
system.cpu.itb.l2Accesses                           0                       # L2 TLB accesses
system.cpu.itb.l2Misses                             0                       # L2 TLB misses
system.cpu.itb.rdAccesses                           0                       # TLB accesses on read requests
system.cpu.itb.rdMisses                             0                       # TLB misses on read requests
system.cpu.itb.wrAccesses                           0                       # TLB accesses on write requests
system.cpu.itb.wrMisses                             0                       # TLB misses on write requests
system.cpu.not_idle_fraction                        1                       # Percentage of non-idle cycles
system.cpu.numCycles                                0                       # number of cpu cycles simulated
system.cpu.numWorkItemsCompleted                    0                       # number of work items this cpu completed
system.cpu.numWorkItemsStarted                      0                       # number of work items this cpu started
system.cpu.num_busy_cycles                          0                       # Number of busy cycles
system.cpu.num_conditional_control_insts            0                       # number of instructions that are conditional controls
system.cpu.num_fp_alu_accesses                      0                       # Number of float alu accesses
system.cpu.num_fp_insts                             0                       # number of float instructions
system.cpu.num_fp_register_reads                    0                       # number of times the floating registers were read
system.cpu.num_fp_register_writes                   0                       # number of times the floating registers were written
system.cpu.num_func_calls                           0                       # number of times a function call or return occured
system.cpu.num_idle_cycles                          0                       # Number of idle cycles
system.cpu.num_int_alu_accesses                     0                       # Number of integer alu accesses
system.cpu.num_int_insts                            0                       # number of integer instructions
system.cpu.num_int_register_reads                   0                       # number of times the integer registers were read
system.cpu.num_int_register_writes                  0                       # number of times the integer registers were written
system.cpu.num_load_insts                           0                       # Number of load instructions
system.cpu.num_mem_refs                             0                       # number of memory refs
system.cpu.num_store_insts                          0                       # Number of store instructions
system.cpu.num_vec_alu_accesses                     0                       # Number of vector alu accesses
system.cpu.num_vec_insts                            0                       # number of vector instructions
system.cpu.num_vec_register_reads                   0                       # number of times the vector registers were read
system.cpu.num_vec_register_writes                  0                       # number of times the vector registers were written
system.cpu.op_class::No_OpClass                     0                       # Class of executed instruction
system.cpu.op_class::IntAlu                         0                       # Class of executed instruction
system.cpu.op_class::IntMult                        0                       # Class of executed instruction
system.cpu.op_class::IntDiv                         0                       # Class of executed instruction
system.cpu.op_class::FloatAdd                       0                       # Class of executed instruction
system.cpu.op_class::FloatCmp                       0                       # Class of executed instruction
system.cpu.op_class::FloatCvt                       0                       # Class of executed instruction
system.cpu.op_class::FloatMult                      0                       # Class of executed instruction
system.cpu.op_class::FloatMultAcc                   0                       # Class of executed instruction
system.cpu.op_class::FloatDiv                       0                       # Class of executed instruction
system.cpu.op_class::FloatMisc                      0                       # Class of executed instruction
system.cpu.op_class::FloatSqrt                      0                       # Class of executed instruction
system.cpu.op_class::SimdAdd                        0                       # Class of executed instruction
system.cpu.op_class::SimdAddAcc                     0                       # Class of executed instruction
system.cpu.op_class::SimdAlu                        0                       # Class of executed instruction
system.cpu.op_class::SimdCmp                        0                       # Class of executed instruction
system.cpu.op_class::SimdCvt                        0                       # Class of executed instruction
system.cpu.op_class::SimdMisc                       0                       # Class of executed instruction
system.cpu.op_class::SimdMult                       0                       # Class of executed instruction
system.cpu.op_class::SimdMultAcc                    0                       # Class of executed instruction
system.cpu.op_class::SimdShift                      0                       # Class of executed instruction
system.cpu.op_class::SimdShiftAcc                   0                       # Class of executed instruction
system.cpu.op_class::SimdDiv                        0                       # Class of executed instruction
system.cpu.op_class::SimdSqrt                       0                       # Class of executed instruction
system.cpu.op_class::SimdFloatAdd                   0                       # Class of executed instruction
system.cpu.op_class::SimdFloatAlu                   0                       # Class of executed instruction
system.cpu.op_class::SimdFloatCmp                   0                       # Class of executed instruction
system.cpu.op_class::SimdFloatCvt                   0                       # Class of executed instruction
system.cpu.op_class::SimdFloatDiv                   0                       # Class of executed instruction
system.cpu.op_class::SimdFloatMisc                  0                       # Class of executed instruction
system.cpu.op_class::SimdFloatMult                  0                       # Class of executed instruction
system.cpu.op_class::SimdFloatMultAcc               0                       # Class of executed instruction
system.cpu.op_class::SimdFloatSqrt                  0                       # Class of executed instruction
system.cpu.op_class::SimdReduceAdd                  0                       # Class of executed instruction
system.cpu.op_class::SimdReduceAlu                  0                       # Class of executed instruction
system.cpu.op_class::SimdReduceCmp                  0                       # Class of executed instruction
system.cpu.op_class::SimdFloatReduceAdd             0                       # Class of executed instruction
system.cpu.op_class::SimdFloatReduceCmp             0                       # Class of executed instruction
system.cpu.op_class::SimdAes                        0                       # Class of executed instruction
system.cpu.op_class::SimdAesMix                     0                       # Class of executed instruction
system.cpu.op_class::SimdSha1Hash                   0                       # Class of executed instruction
system.cpu.op_class::SimdSha1Hash2                  0                       # Class of executed instruction
system.cpu.op_class::SimdSha256Hash                 0                       # Class of executed instruction
system.cpu.op_class::SimdSha256Hash2                0                       # Class of executed instruction
system.cpu.op_class::SimdShaSigma2                  0                       # Class of executed instruction
system.cpu.op_class::SimdShaSigma3                  0                       # Class of executed instruction
system.cpu.op_class::SimdPredAlu                    0                       # Class of executed instruction
system.cpu.op_class::MemRead                        0                       # Class of executed instruction
system.cpu.op_class::MemWrite                       0                       # Class of executed instruction
system.cpu.op_class::FloatMemRead                   0                       # Class of executed instruction
system.cpu.op_class::FloatMemWrite                  0                       # Class of executed instruction
system.cpu.op_class::IprAccess                      0                       # Class of executed instruction
system.cpu.op_class::InstPrefetch                   0                       # Class of executed instruction
system.cpu.op_class::Accelerator                    0                       # Class of executed instruction
system.cpu.op_class::total                          0                       # Class of executed instruction
system.cpu.workload.numSyscalls                    82                       # Number of system calls
system.cpu.workload.snm.indRegionMemFinalBanks::samples            0                       # Distribution of remapped IndRegion banks.
system.cpu.workload.snm.indRegionMemFinalBanks::mean          nan                       # Distribution of remapped IndRegion banks.
system.cpu.workload.snm.indRegionMemFinalBanks::stdev          nan                       # Distribution of remapped IndRegion banks.
system.cpu.workload.snm.indRegionMemFinalBanks::underflows            0                       # Distribution of remapped IndRegion banks.
system.cpu.workload.snm.indRegionMemFinalBanks::0            0                       # Distribution of remapped IndRegion banks.
system.cpu.workload.snm.indRegionMemFinalBanks::1            0                       # Distribution of remapped IndRegion banks.
system.cpu.workload.snm.indRegionMemFinalBanks::2            0                       # Distribution of remapped IndRegion banks.
system.cpu.workload.snm.indRegionMemFinalBanks::3            0                       # Distribution of remapped IndRegion banks.
system.cpu.workload.snm.indRegionMemFinalBanks::overflows            0                       # Distribution of remapped IndRegion banks.
system.cpu.workload.snm.indRegionMemFinalBanks::min_value            0                       # Distribution of remapped IndRegion banks.
system.cpu.workload.snm.indRegionMemFinalBanks::max_value            0                       # Distribution of remapped IndRegion banks.
system.cpu.workload.snm.indRegionMemFinalBanks::total            0                       # Distribution of remapped IndRegion banks.
system.cpu.workload.snm.indRegionMemOptimizedBanks::samples            0                       # Distribution of optimized IndRegion banks.
system.cpu.workload.snm.indRegionMemOptimizedBanks::mean          nan                       # Distribution of optimized IndRegion banks.
system.cpu.workload.snm.indRegionMemOptimizedBanks::stdev          nan                       # Distribution of optimized IndRegion banks.
system.cpu.workload.snm.indRegionMemOptimizedBanks::underflows            0                       # Distribution of optimized IndRegion banks.
system.cpu.workload.snm.indRegionMemOptimizedBanks::0            0                       # Distribution of optimized IndRegion banks.
system.cpu.workload.snm.indRegionMemOptimizedBanks::1            0                       # Distribution of optimized IndRegion banks.
system.cpu.workload.snm.indRegionMemOptimizedBanks::2            0                       # Distribution of optimized IndRegion banks.
system.cpu.workload.snm.indRegionMemOptimizedBanks::3            0                       # Distribution of optimized IndRegion banks.
system.cpu.workload.snm.indRegionMemOptimizedBanks::overflows            0                       # Distribution of optimized IndRegion banks.
system.cpu.workload.snm.indRegionMemOptimizedBanks::min_value            0                       # Distribution of optimized IndRegion banks.
system.cpu.workload.snm.indRegionMemOptimizedBanks::max_value            0                       # Distribution of optimized IndRegion banks.
system.cpu.workload.snm.indRegionMemOptimizedBanks::total            0                       # Distribution of optimized IndRegion banks.
system.cpu.workload.snm.indRegionMemRemappedBanks::samples            0                       # Distribution of remapped IndRegion banks.
system.cpu.workload.snm.indRegionMemRemappedBanks::mean          nan                       # Distribution of remapped IndRegion banks.
system.cpu.workload.snm.indRegionMemRemappedBanks::stdev          nan                       # Distribution of remapped IndRegion banks.
system.cpu.workload.snm.indRegionMemRemappedBanks::underflows            0                       # Distribution of remapped IndRegion banks.
system.cpu.workload.snm.indRegionMemRemappedBanks::0            0                       # Distribution of remapped IndRegion banks.
system.cpu.workload.snm.indRegionMemRemappedBanks::1            0                       # Distribution of remapped IndRegion banks.
system.cpu.workload.snm.indRegionMemRemappedBanks::2            0                       # Distribution of remapped IndRegion banks.
system.cpu.workload.snm.indRegionMemRemappedBanks::3            0                       # Distribution of remapped IndRegion banks.
system.cpu.workload.snm.indRegionMemRemappedBanks::overflows            0                       # Distribution of remapped IndRegion banks.
system.cpu.workload.snm.indRegionMemRemappedBanks::min_value            0                       # Distribution of remapped IndRegion banks.
system.cpu.workload.snm.indRegionMemRemappedBanks::max_value            0                       # Distribution of remapped IndRegion banks.
system.cpu.workload.snm.indRegionMemRemappedBanks::total            0                       # Distribution of remapped IndRegion banks.
system.future_cpus.branchPred.BTBCorrect            0                       # Number of correct BTB predictions (this stat may not work properly.
system.future_cpus.branchPred.BTBHitPct           nan                       # BTB Hit Percentage
system.future_cpus.branchPred.BTBHits               0                       # Number of BTB hits
system.future_cpus.branchPred.BTBLookups            0                       # Number of BTB lookups
system.future_cpus.branchPred.RASInCorrect            0                       # Number of incorrect RAS predictions.
system.future_cpus.branchPred.condIncorrect          838                       # Number of conditional branches incorrect
system.future_cpus.branchPred.condPredicted        67057                       # Number of conditional branches predicted
system.future_cpus.branchPred.indirectHits        23982                       # Number of indirect target hits.
system.future_cpus.branchPred.indirectLookups        25114                       # Number of indirect predictor lookups.
system.future_cpus.branchPred.indirectMisses         1132                       # Number of indirect misses.
system.future_cpus.branchPred.lookups           69948                       # Number of BP lookups
system.future_cpus.branchPred.loop_predictor.loopPredictorCorrect        49899                       # Number of times the loop predictor is the provider and the prediction is correct
system.future_cpus.branchPred.loop_predictor.loopPredictorWrong        14570                       # Number of times the loop predictor is the provider and the prediction is wrong
system.future_cpus.branchPred.tage.bimodalAltMatchProviderCorrect           59                       # Number of times TAGE Alt Match is the bimodal and it is the provider and the prediction is correct
system.future_cpus.branchPred.tage.bimodalAltMatchProviderWrong           18                       # Number of times TAGE Alt Match is the bimodal and it is the provider and the prediction is wrong
system.future_cpus.branchPred.tage.tageAltMatchProvider::0        19169                       # TAGE provider for alt match
system.future_cpus.branchPred.tage.tageAltMatchProvider::1         2113                       # TAGE provider for alt match
system.future_cpus.branchPred.tage.tageAltMatchProvider::2          574                       # TAGE provider for alt match
system.future_cpus.branchPred.tage.tageAltMatchProvider::3          154                       # TAGE provider for alt match
system.future_cpus.branchPred.tage.tageAltMatchProvider::4          190                       # TAGE provider for alt match
system.future_cpus.branchPred.tage.tageAltMatchProvider::5          523                       # TAGE provider for alt match
system.future_cpus.branchPred.tage.tageAltMatchProvider::6          654                       # TAGE provider for alt match
system.future_cpus.branchPred.tage.tageAltMatchProvider::7          694                       # TAGE provider for alt match
system.future_cpus.branchPred.tage.tageAltMatchProvider::8          862                       # TAGE provider for alt match
system.future_cpus.branchPred.tage.tageAltMatchProvider::9         1130                       # TAGE provider for alt match
system.future_cpus.branchPred.tage.tageAltMatchProvider::10         1375                       # TAGE provider for alt match
system.future_cpus.branchPred.tage.tageAltMatchProvider::11         2871                       # TAGE provider for alt match
system.future_cpus.branchPred.tage.tageAltMatchProvider::12            0                       # TAGE provider for alt match
system.future_cpus.branchPred.tage.tageAltMatchProviderCorrect           82                       # Number of times TAGE Alt Match is the provider and the prediction is correct
system.future_cpus.branchPred.tage.tageAltMatchProviderWouldHaveHit           17                       # Number of times TAGE Longest Match is the provider, the prediction is wrong and Alt Match prediction was correct
system.future_cpus.branchPred.tage.tageAltMatchProviderWrong           14                       # Number of times TAGE Alt Match is the provider and the prediction is wrong
system.future_cpus.branchPred.tage.tageBimodalProviderCorrect        34006                       # Number of times there are no hits on the TAGE tables and the bimodal prediction is correct
system.future_cpus.branchPred.tage.tageBimodalProviderWrong           77                       # Number of times there are no hits on the TAGE tables and the bimodal prediction is wrong
system.future_cpus.branchPred.tage.tageLongestMatchProvider::0            0                       # TAGE provider for longest match
system.future_cpus.branchPred.tage.tageLongestMatchProvider::1        16781                       # TAGE provider for longest match
system.future_cpus.branchPred.tage.tageLongestMatchProvider::2         3228                       # TAGE provider for longest match
system.future_cpus.branchPred.tage.tageLongestMatchProvider::3         1341                       # TAGE provider for longest match
system.future_cpus.branchPred.tage.tageLongestMatchProvider::4          574                       # TAGE provider for longest match
system.future_cpus.branchPred.tage.tageLongestMatchProvider::5          173                       # TAGE provider for longest match
system.future_cpus.branchPred.tage.tageLongestMatchProvider::6          547                       # TAGE provider for longest match
system.future_cpus.branchPred.tage.tageLongestMatchProvider::7          591                       # TAGE provider for longest match
system.future_cpus.branchPred.tage.tageLongestMatchProvider::8          671                       # TAGE provider for longest match
system.future_cpus.branchPred.tage.tageLongestMatchProvider::9          805                       # TAGE provider for longest match
system.future_cpus.branchPred.tage.tageLongestMatchProvider::10         1294                       # TAGE provider for longest match
system.future_cpus.branchPred.tage.tageLongestMatchProvider::11         1406                       # TAGE provider for longest match
system.future_cpus.branchPred.tage.tageLongestMatchProvider::12         2898                       # TAGE provider for longest match
system.future_cpus.branchPred.tage.tageLongestMatchProviderCorrect        30112                       # Number of times TAGE Longest Match is the provider and the prediction is correct
system.future_cpus.branchPred.tage.tageLongestMatchProviderWouldHaveHit           20                       # Number of times TAGE Alt Match is the provider, the prediction is wrong and Longest Match prediction was correct
system.future_cpus.branchPred.tage.tageLongestMatchProviderWrong          101                       # Number of times TAGE Longest Match is the provider and the prediction is wrong
system.future_cpus.branchPred.usedRAS            1304                       # Number of times the RAS was used to get a target.
system.future_cpus.branchPredindirectMispredicted          602                       # Number of mispredicted indirect branches.
system.future_cpus.cc_regfile_reads            707518                       # number of cc regfile reads
system.future_cpus.cc_regfile_writes           327899                       # number of cc regfile writes
system.future_cpus.commit.amos                      0                       # Number of atomic instructions committed
system.future_cpus.commit.branchMispredicts          878                       # The number of times a branch was mispredicted
system.future_cpus.commit.branches              66767                       # Number of branches committed
system.future_cpus.commit.bw_lim_events         88383                       # number cycles where commit BW limit reached
system.future_cpus.commit.commitNonSpecStalls           82                       # The number of times commit has been forced to stall to communicate backwards
system.future_cpus.commit.commitSquashedInsts        25122                       # The number of squashed insts skipped by commit
system.future_cpus.commit.committedInsts       681072                       # Number of instructions committed
system.future_cpus.commit.committedOps        1171102                       # Number of ops (including micro ops) committed
system.future_cpus.commit.committed_per_cycle::samples      2438905                       # Number of insts commited each cycle
system.future_cpus.commit.committed_per_cycle::mean     0.480175                       # Number of insts commited each cycle
system.future_cpus.commit.committed_per_cycle::stdev     1.715186                       # Number of insts commited each cycle
system.future_cpus.commit.committed_per_cycle::underflows            0      0.00%      0.00% # Number of insts commited each cycle
system.future_cpus.commit.committed_per_cycle::0      2200418     90.22%     90.22% # Number of insts commited each cycle
system.future_cpus.commit.committed_per_cycle::1        49122      2.01%     92.24% # Number of insts commited each cycle
system.future_cpus.commit.committed_per_cycle::2        30550      1.25%     93.49% # Number of insts commited each cycle
system.future_cpus.commit.committed_per_cycle::3         7519      0.31%     93.80% # Number of insts commited each cycle
system.future_cpus.commit.committed_per_cycle::4        26030      1.07%     94.86% # Number of insts commited each cycle
system.future_cpus.commit.committed_per_cycle::5        10774      0.44%     95.31% # Number of insts commited each cycle
system.future_cpus.commit.committed_per_cycle::6         9494      0.39%     95.69% # Number of insts commited each cycle
system.future_cpus.commit.committed_per_cycle::7        16615      0.68%     96.38% # Number of insts commited each cycle
system.future_cpus.commit.committed_per_cycle::8        88383      3.62%    100.00% # Number of insts commited each cycle
system.future_cpus.commit.committed_per_cycle::overflows            0      0.00%    100.00% # Number of insts commited each cycle
system.future_cpus.commit.committed_per_cycle::min_value            0                       # Number of insts commited each cycle
system.future_cpus.commit.committed_per_cycle::max_value            8                       # Number of insts commited each cycle
system.future_cpus.commit.committed_per_cycle::total      2438905                       # Number of insts commited each cycle
system.future_cpus.commit.fp_insts             288521                       # Number of committed floating point instructions.
system.future_cpus.commit.function_calls         1149                       # Number of function calls committed.
system.future_cpus.commit.int_insts            939260                       # Number of committed integer instructions.
system.future_cpus.commit.loads                248106                       # Number of loads committed
system.future_cpus.commit.membars                   0                       # Number of memory barriers committed
system.future_cpus.commit.op_class_0::No_OpClass       322871     27.57%     27.57% # Class of committed instruction
system.future_cpus.commit.op_class_0::IntAlu       289905     24.75%     52.32% # Class of committed instruction
system.future_cpus.commit.op_class_0::IntMult         8825      0.75%     53.08% # Class of committed instruction
system.future_cpus.commit.op_class_0::IntDiv          574      0.05%     53.13% # Class of committed instruction
system.future_cpus.commit.op_class_0::FloatAdd            0      0.00%     53.13% # Class of committed instruction
system.future_cpus.commit.op_class_0::FloatCmp            0      0.00%     53.13% # Class of committed instruction
system.future_cpus.commit.op_class_0::FloatCvt            0      0.00%     53.13% # Class of committed instruction
system.future_cpus.commit.op_class_0::FloatMult            0      0.00%     53.13% # Class of committed instruction
system.future_cpus.commit.op_class_0::FloatMultAcc            0      0.00%     53.13% # Class of committed instruction
system.future_cpus.commit.op_class_0::FloatDiv            0      0.00%     53.13% # Class of committed instruction
system.future_cpus.commit.op_class_0::FloatMisc            0      0.00%     53.13% # Class of committed instruction
system.future_cpus.commit.op_class_0::FloatSqrt            0      0.00%     53.13% # Class of committed instruction
system.future_cpus.commit.op_class_0::SimdAdd            0      0.00%     53.13% # Class of committed instruction
system.future_cpus.commit.op_class_0::SimdAddAcc            0      0.00%     53.13% # Class of committed instruction
system.future_cpus.commit.op_class_0::SimdAlu         1640      0.14%     53.27% # Class of committed instruction
system.future_cpus.commit.op_class_0::SimdCmp            0      0.00%     53.27% # Class of committed instruction
system.future_cpus.commit.op_class_0::SimdCvt          656      0.06%     53.32% # Class of committed instruction
system.future_cpus.commit.op_class_0::SimdMisc        72812      6.22%     59.54% # Class of committed instruction
system.future_cpus.commit.op_class_0::SimdMult            0      0.00%     59.54% # Class of committed instruction
system.future_cpus.commit.op_class_0::SimdMultAcc            0      0.00%     59.54% # Class of committed instruction
system.future_cpus.commit.op_class_0::SimdShift            0      0.00%     59.54% # Class of committed instruction
system.future_cpus.commit.op_class_0::SimdShiftAcc            0      0.00%     59.54% # Class of committed instruction
system.future_cpus.commit.op_class_0::SimdDiv            0      0.00%     59.54% # Class of committed instruction
system.future_cpus.commit.op_class_0::SimdSqrt            0      0.00%     59.54% # Class of committed instruction
system.future_cpus.commit.op_class_0::SimdFloatAdd        68712      5.87%     65.41% # Class of committed instruction
system.future_cpus.commit.op_class_0::SimdFloatAlu            0      0.00%     65.41% # Class of committed instruction
system.future_cpus.commit.op_class_0::SimdFloatCmp            0      0.00%     65.41% # Class of committed instruction
system.future_cpus.commit.op_class_0::SimdFloatCvt            0      0.00%     65.41% # Class of committed instruction
system.future_cpus.commit.op_class_0::SimdFloatDiv            0      0.00%     65.41% # Class of committed instruction
system.future_cpus.commit.op_class_0::SimdFloatMisc            0      0.00%     65.41% # Class of committed instruction
system.future_cpus.commit.op_class_0::SimdFloatMult        68712      5.87%     71.28% # Class of committed instruction
system.future_cpus.commit.op_class_0::SimdFloatMultAcc            0      0.00%     71.28% # Class of committed instruction
system.future_cpus.commit.op_class_0::SimdFloatSqrt            0      0.00%     71.28% # Class of committed instruction
system.future_cpus.commit.op_class_0::SimdReduceAdd            0      0.00%     71.28% # Class of committed instruction
system.future_cpus.commit.op_class_0::SimdReduceAlu            0      0.00%     71.28% # Class of committed instruction
system.future_cpus.commit.op_class_0::SimdReduceCmp            0      0.00%     71.28% # Class of committed instruction
system.future_cpus.commit.op_class_0::SimdFloatReduceAdd            0      0.00%     71.28% # Class of committed instruction
system.future_cpus.commit.op_class_0::SimdFloatReduceCmp            0      0.00%     71.28% # Class of committed instruction
system.future_cpus.commit.op_class_0::SimdAes            0      0.00%     71.28% # Class of committed instruction
system.future_cpus.commit.op_class_0::SimdAesMix            0      0.00%     71.28% # Class of committed instruction
system.future_cpus.commit.op_class_0::SimdSha1Hash            0      0.00%     71.28% # Class of committed instruction
system.future_cpus.commit.op_class_0::SimdSha1Hash2            0      0.00%     71.28% # Class of committed instruction
system.future_cpus.commit.op_class_0::SimdSha256Hash            0      0.00%     71.28% # Class of committed instruction
system.future_cpus.commit.op_class_0::SimdSha256Hash2            0      0.00%     71.28% # Class of committed instruction
system.future_cpus.commit.op_class_0::SimdShaSigma2            0      0.00%     71.28% # Class of committed instruction
system.future_cpus.commit.op_class_0::SimdShaSigma3            0      0.00%     71.28% # Class of committed instruction
system.future_cpus.commit.op_class_0::SimdPredAlu            0      0.00%     71.28% # Class of committed instruction
system.future_cpus.commit.op_class_0::MemRead       101601      8.68%     79.95% # Class of committed instruction
system.future_cpus.commit.op_class_0::MemWrite        19413      1.66%     81.61% # Class of committed instruction
system.future_cpus.commit.op_class_0::FloatMemRead       146505     12.51%     94.12% # Class of committed instruction
system.future_cpus.commit.op_class_0::FloatMemWrite        68876      5.88%    100.00% # Class of committed instruction
system.future_cpus.commit.op_class_0::IprAccess            0      0.00%    100.00% # Class of committed instruction
system.future_cpus.commit.op_class_0::InstPrefetch            0      0.00%    100.00% # Class of committed instruction
system.future_cpus.commit.op_class_0::Accelerator            0      0.00%    100.00% # Class of committed instruction
system.future_cpus.commit.op_class_0::total      1171102                       # Class of committed instruction
system.future_cpus.commit.refs                 336395                       # Number of memory references committed
system.future_cpus.commit.swp_count                 0                       # Number of s/w prefetches committed
system.future_cpus.commit.vec_insts                 0                       # Number of committed Vector instructions.
system.future_cpus.committedInsts              681072                       # Number of Instructions Simulated
system.future_cpus.committedOps               1171102                       # Number of Ops (including micro ops) Simulated
system.future_cpus.cpi                       3.669561                       # CPI: Cycles Per Instruction
system.future_cpus.cpi_total                 3.669561                       # CPI: Total CPI of All Threads
system.future_cpus.decode.BlockedCycles       2185101                       # Number of cycles decode is blocked
system.future_cpus.decode.DecodedInsts        1207988                       # Number of instructions handled by decode
system.future_cpus.decode.IdleCycles            92228                       # Number of cycles decode is idle
system.future_cpus.decode.RunCycles            152939                       # Number of cycles decode is running
system.future_cpus.decode.SquashCycles            915                       # Number of cycles decode is squashing
system.future_cpus.decode.UnblockCycles         11599                       # Number of cycles decode is unblocking
system.future_cpus.dtb.l1Accesses              341162                       # L1 TLB accesses
system.future_cpus.dtb.l1Misses                  9952                       # L1 TLB misses
system.future_cpus.dtb.l2Accesses                9952                       # L2 TLB accesses
system.future_cpus.dtb.l2Misses                  9952                       # L2 TLB misses
system.future_cpus.dtb.rdAccesses              251097                       # TLB accesses on read requests
system.future_cpus.dtb.rdMisses                  9843                       # TLB misses on read requests
system.future_cpus.dtb.se_walker.accesses         9897                       # PageWalker accesses
system.future_cpus.dtb.se_walker.hits               0                       # PageWalker hits on infly walks
system.future_cpus.dtb.se_walker.waits              0                       # PageWalker waits on available context
system.future_cpus.dtb.wrAccesses               90065                       # TLB accesses on write requests
system.future_cpus.dtb.wrMisses                   109                       # TLB misses on write requests
system.future_cpus.fetch.Branches               69948                       # Number of branches that fetch encountered
system.future_cpus.fetch.CacheLines             82215                       # Number of cache lines fetched
system.future_cpus.fetch.Cycles               2310274                       # Number of cycles fetch has run and was not squashing or blocked
system.future_cpus.fetch.IcacheSquashes           341                       # Number of outstanding Icache misses that were squashed
system.future_cpus.fetch.Insts                 704606                       # Number of instructions fetch has processed
system.future_cpus.fetch.MiscStallCycles           42                       # Number of cycles fetch has spent waiting on interrupts, or bad addresses, or out of MSHRs
system.future_cpus.fetch.PendingTrapStallCycles          257                       # Number of stall cycles due to pending traps
system.future_cpus.fetch.SquashCycles            1830                       # Number of cycles fetch has spent squashing
system.future_cpus.fetch.branchRate          0.027988                       # Number of branch fetches per cycle
system.future_cpus.fetch.icacheStallCycles       131294                       # Number of cycles fetch is stalled on an Icache miss
system.future_cpus.fetch.predictedBranches        25286                       # Number of branches that fetch has predicted taken
system.future_cpus.fetch.rate                0.281929                       # Number of inst fetches per cycle
system.future_cpus.fetch.rateDist::samples      2442782                       # Number of instructions fetched each cycle (Total)
system.future_cpus.fetch.rateDist::mean      0.496998                       # Number of instructions fetched each cycle (Total)
system.future_cpus.fetch.rateDist::stdev     1.835353                       # Number of instructions fetched each cycle (Total)
system.future_cpus.fetch.rateDist::underflows            0      0.00%      0.00% # Number of instructions fetched each cycle (Total)
system.future_cpus.fetch.rateDist::0          2266962     92.80%     92.80% # Number of instructions fetched each cycle (Total)
system.future_cpus.fetch.rateDist::1             1238      0.05%     92.85% # Number of instructions fetched each cycle (Total)
system.future_cpus.fetch.rateDist::2             1784      0.07%     92.93% # Number of instructions fetched each cycle (Total)
system.future_cpus.fetch.rateDist::3             2695      0.11%     93.04% # Number of instructions fetched each cycle (Total)
system.future_cpus.fetch.rateDist::4            11583      0.47%     93.51% # Number of instructions fetched each cycle (Total)
system.future_cpus.fetch.rateDist::5            18802      0.77%     94.28% # Number of instructions fetched each cycle (Total)
system.future_cpus.fetch.rateDist::6            27883      1.14%     95.42% # Number of instructions fetched each cycle (Total)
system.future_cpus.fetch.rateDist::7             1153      0.05%     95.47% # Number of instructions fetched each cycle (Total)
system.future_cpus.fetch.rateDist::8           110682      4.53%    100.00% # Number of instructions fetched each cycle (Total)
system.future_cpus.fetch.rateDist::overflows            0      0.00%    100.00% # Number of instructions fetched each cycle (Total)
system.future_cpus.fetch.rateDist::min_value            0                       # Number of instructions fetched each cycle (Total)
system.future_cpus.fetch.rateDist::max_value            8                       # Number of instructions fetched each cycle (Total)
system.future_cpus.fetch.rateDist::total      2442782                       # Number of instructions fetched each cycle (Total)
system.future_cpus.fp_regfile_reads           2828716                       # number of floating regfile reads
system.future_cpus.fp_regfile_writes          2299809                       # number of floating regfile writes
system.future_cpus.idleCycles                   56453                       # Total number of cycles that the CPU has spent unscheduled due to idling
system.future_cpus.iew.branchMispredicts         1018                       # Number of branch mispredicts detected at execute
system.future_cpus.iew.exec_branches            67539                       # Number of branches executed
system.future_cpus.iew.exec_nop                     0                       # number of nop insts executed
system.future_cpus.iew.exec_rate             0.475009                       # Inst execution rate
system.future_cpus.iew.exec_refs               341162                       # number of memory reference insts executed
system.future_cpus.iew.exec_stores              90060                       # Number of stores executed
system.future_cpus.iew.exec_swp                     0                       # number of swp insts executed
system.future_cpus.iew.iewBlockCycles            7712                       # Number of cycles IEW is blocking
system.future_cpus.iew.iewDispLoadInsts        252177                       # Number of dispatched load instructions
system.future_cpus.iew.iewDispNonSpecInsts           82                       # Number of dispatched non-speculative instructions
system.future_cpus.iew.iewDispSquashedInsts           48                       # Number of squashed instructions skipped by dispatch
system.future_cpus.iew.iewDispStoreInsts        91058                       # Number of dispatched store instructions
system.future_cpus.iew.iewDispatchedInsts      1196657                       # Number of instructions dispatched to IQ
system.future_cpus.iew.iewExecLoadInsts        251102                       # Number of load instructions executed
system.future_cpus.iew.iewExecSquashedInsts         2254                       # Number of squashed instructions skipped in execute
system.future_cpus.iew.iewExecutedInsts       1187159                       # Number of executed instructions
system.future_cpus.iew.iewIQFullEvents            184                       # Number of times the IQ has become full, causing a stall
system.future_cpus.iew.iewIdleCycles                0                       # Number of cycles IEW is idle
system.future_cpus.iew.iewLSQFullEvents            73                       # Number of times the LSQ has become full, causing a stall
system.future_cpus.iew.iewSquashCycles            915                       # Number of cycles IEW is squashing
system.future_cpus.iew.iewUnblockCycles           300                       # Number of cycles IEW is unblocking
system.future_cpus.iew.lsq.blockedLoads             0                       # Number of blocked loads due to partial load-store forwarding
system.future_cpus.iew.lsq.cacheBlocked            12                       # Number of times an access to memory failed due to the cache being blocked
system.future_cpus.iew.lsq.forwLoads            10359                       # Number of loads that had data forwarded from stores
system.future_cpus.iew.lsq.ignoredResponses            3                       # Number of memory responses ignored because the instruction is squashed
system.future_cpus.iew.lsq.invAddrLoads             0                       # Number of loads ignored due to an invalid address
system.future_cpus.iew.lsq.invAddrSwpfs             0                       # Number of software prefetches ignored due to an invalid address
system.future_cpus.iew.lsq.memOrderViolation           12                       # Number of memory ordering violations
system.future_cpus.iew.lsq.rescheduledLoads           63                       # Number of loads that were rescheduled
system.future_cpus.iew.lsq.squashedLoads         4063                       # Number of loads squashed
system.future_cpus.iew.lsq.squashedStores         2768                       # Number of stores squashed
system.future_cpus.iew.memOrderViolationEvents           12                       # Number of memory order violations
system.future_cpus.iew.predictedNotTakenIncorrect         1013                       # Number of branches that were predicted not taken incorrectly
system.future_cpus.iew.predictedTakenIncorrect            5                       # Number of branches that were predicted taken incorrectly
system.future_cpus.iew.wb_consumers           3577195                       # num instructions consuming a value
system.future_cpus.iew.wb_count               1185926                       # cumulative count of insts written-back
system.future_cpus.iew.wb_fanout             0.255351                       # average fanout of values written-back
system.future_cpus.iew.wb_producers            913439                       # num instructions producing a value
system.future_cpus.iew.wb_rate               0.474516                       # insts written-back per cycle
system.future_cpus.iew.wb_sent                1186438                       # cumulative count of insts sent to commit
system.future_cpus.int_regfile_reads          1641069                       # number of integer regfile reads
system.future_cpus.int_regfile_writes          659192                       # number of integer regfile writes
system.future_cpus.ipc                       0.272512                       # IPC: Instructions Per Cycle
system.future_cpus.ipc_total                 0.272512                       # IPC: Total IPC of All Threads
system.future_cpus.iq.FU_type_0::No_OpClass       330302     27.54%     27.54% # Type of FU issued
system.future_cpus.iq.FU_type_0::IntAlu        294615     24.57%     52.11% # Type of FU issued
system.future_cpus.iq.FU_type_0::IntMult         8919      0.74%     52.85% # Type of FU issued
system.future_cpus.iq.FU_type_0::IntDiv           575      0.05%     52.90% # Type of FU issued
system.future_cpus.iq.FU_type_0::FloatAdd            0      0.00%     52.90% # Type of FU issued
system.future_cpus.iq.FU_type_0::FloatCmp            0      0.00%     52.90% # Type of FU issued
system.future_cpus.iq.FU_type_0::FloatCvt            0      0.00%     52.90% # Type of FU issued
system.future_cpus.iq.FU_type_0::FloatMult            0      0.00%     52.90% # Type of FU issued
system.future_cpus.iq.FU_type_0::FloatMultAcc            0      0.00%     52.90% # Type of FU issued
system.future_cpus.iq.FU_type_0::FloatDiv            0      0.00%     52.90% # Type of FU issued
system.future_cpus.iq.FU_type_0::FloatMisc            0      0.00%     52.90% # Type of FU issued
system.future_cpus.iq.FU_type_0::FloatSqrt            0      0.00%     52.90% # Type of FU issued
system.future_cpus.iq.FU_type_0::SimdAdd            0      0.00%     52.90% # Type of FU issued
system.future_cpus.iq.FU_type_0::SimdAddAcc            0      0.00%     52.90% # Type of FU issued
system.future_cpus.iq.FU_type_0::SimdAlu         1695      0.14%     53.04% # Type of FU issued
system.future_cpus.iq.FU_type_0::SimdCmp            0      0.00%     53.04% # Type of FU issued
system.future_cpus.iq.FU_type_0::SimdCvt          656      0.05%     53.09% # Type of FU issued
system.future_cpus.iq.FU_type_0::SimdMisc        73211      6.10%     59.20% # Type of FU issued
system.future_cpus.iq.FU_type_0::SimdMult            0      0.00%     59.20% # Type of FU issued
system.future_cpus.iq.FU_type_0::SimdMultAcc            0      0.00%     59.20% # Type of FU issued
system.future_cpus.iq.FU_type_0::SimdShift            0      0.00%     59.20% # Type of FU issued
system.future_cpus.iq.FU_type_0::SimdShiftAcc            0      0.00%     59.20% # Type of FU issued
system.future_cpus.iq.FU_type_0::SimdDiv            0      0.00%     59.20% # Type of FU issued
system.future_cpus.iq.FU_type_0::SimdSqrt            0      0.00%     59.20% # Type of FU issued
system.future_cpus.iq.FU_type_0::SimdFloatAdd        68766      5.73%     64.93% # Type of FU issued
system.future_cpus.iq.FU_type_0::SimdFloatAlu            0      0.00%     64.93% # Type of FU issued
system.future_cpus.iq.FU_type_0::SimdFloatCmp            0      0.00%     64.93% # Type of FU issued
system.future_cpus.iq.FU_type_0::SimdFloatCvt            0      0.00%     64.93% # Type of FU issued
system.future_cpus.iq.FU_type_0::SimdFloatDiv            0      0.00%     64.93% # Type of FU issued
system.future_cpus.iq.FU_type_0::SimdFloatMisc            0      0.00%     64.93% # Type of FU issued
system.future_cpus.iq.FU_type_0::SimdFloatMult        68756      5.73%     70.66% # Type of FU issued
system.future_cpus.iq.FU_type_0::SimdFloatMultAcc            0      0.00%     70.66% # Type of FU issued
system.future_cpus.iq.FU_type_0::SimdFloatSqrt            0      0.00%     70.66% # Type of FU issued
system.future_cpus.iq.FU_type_0::SimdReduceAdd            0      0.00%     70.66% # Type of FU issued
system.future_cpus.iq.FU_type_0::SimdReduceAlu            0      0.00%     70.66% # Type of FU issued
system.future_cpus.iq.FU_type_0::SimdReduceCmp            0      0.00%     70.66% # Type of FU issued
system.future_cpus.iq.FU_type_0::SimdFloatReduceAdd            0      0.00%     70.66% # Type of FU issued
system.future_cpus.iq.FU_type_0::SimdFloatReduceCmp            0      0.00%     70.66% # Type of FU issued
system.future_cpus.iq.FU_type_0::SimdAes            0      0.00%     70.66% # Type of FU issued
system.future_cpus.iq.FU_type_0::SimdAesMix            0      0.00%     70.66% # Type of FU issued
system.future_cpus.iq.FU_type_0::SimdSha1Hash            0      0.00%     70.66% # Type of FU issued
system.future_cpus.iq.FU_type_0::SimdSha1Hash2            0      0.00%     70.66% # Type of FU issued
system.future_cpus.iq.FU_type_0::SimdSha256Hash            0      0.00%     70.66% # Type of FU issued
system.future_cpus.iq.FU_type_0::SimdSha256Hash2            0      0.00%     70.66% # Type of FU issued
system.future_cpus.iq.FU_type_0::SimdShaSigma2            0      0.00%     70.66% # Type of FU issued
system.future_cpus.iq.FU_type_0::SimdShaSigma3            0      0.00%     70.66% # Type of FU issued
system.future_cpus.iq.FU_type_0::SimdPredAlu            0      0.00%     70.66% # Type of FU issued
system.future_cpus.iq.FU_type_0::MemRead       105027      8.76%     79.42% # Type of FU issued
system.future_cpus.iq.FU_type_0::MemWrite        21373      1.78%     81.20% # Type of FU issued
system.future_cpus.iq.FU_type_0::FloatMemRead       156396     13.04%     94.24% # Type of FU issued
system.future_cpus.iq.FU_type_0::FloatMemWrite        69024      5.76%    100.00% # Type of FU issued
system.future_cpus.iq.FU_type_0::IprAccess            0      0.00%    100.00% # Type of FU issued
system.future_cpus.iq.FU_type_0::InstPrefetch            0      0.00%    100.00% # Type of FU issued
system.future_cpus.iq.FU_type_0::Accelerator            0      0.00%    100.00% # Type of FU issued
system.future_cpus.iq.FU_type_0::total        1199315                       # Type of FU issued
system.future_cpus.iq.fp_alu_accesses          332441                       # Number of floating point alu accesses
system.future_cpus.iq.fp_inst_queue_reads       631930                       # Number of floating instruction queue reads
system.future_cpus.iq.fp_inst_queue_wakeup_accesses       289314                       # Number of floating instruction queue wakeup accesses
system.future_cpus.iq.fp_inst_queue_writes       293715                       # Number of floating instruction queue writes
system.future_cpus.iq.fu_busy_cnt               35261                       # FU busy when requested
system.future_cpus.iq.fu_busy_rate           0.029401                       # FU busy rate (busy events/executed inst)
system.future_cpus.iq.fu_full::No_OpClass            0      0.00%      0.00% # attempts to use FU when none available
system.future_cpus.iq.fu_full::IntAlu               0      0.00%      0.00% # attempts to use FU when none available
system.future_cpus.iq.fu_full::IntMult              0      0.00%      0.00% # attempts to use FU when none available
system.future_cpus.iq.fu_full::IntDiv               0      0.00%      0.00% # attempts to use FU when none available
system.future_cpus.iq.fu_full::FloatAdd             0      0.00%      0.00% # attempts to use FU when none available
system.future_cpus.iq.fu_full::FloatCmp             0      0.00%      0.00% # attempts to use FU when none available
system.future_cpus.iq.fu_full::FloatCvt             0      0.00%      0.00% # attempts to use FU when none available
system.future_cpus.iq.fu_full::FloatMult            0      0.00%      0.00% # attempts to use FU when none available
system.future_cpus.iq.fu_full::FloatMultAcc            0      0.00%      0.00% # attempts to use FU when none available
system.future_cpus.iq.fu_full::FloatDiv             0      0.00%      0.00% # attempts to use FU when none available
system.future_cpus.iq.fu_full::FloatMisc            0      0.00%      0.00% # attempts to use FU when none available
system.future_cpus.iq.fu_full::FloatSqrt            0      0.00%      0.00% # attempts to use FU when none available
system.future_cpus.iq.fu_full::SimdAdd              0      0.00%      0.00% # attempts to use FU when none available
system.future_cpus.iq.fu_full::SimdAddAcc            0      0.00%      0.00% # attempts to use FU when none available
system.future_cpus.iq.fu_full::SimdAlu            192      0.54%      0.54% # attempts to use FU when none available
system.future_cpus.iq.fu_full::SimdCmp              0      0.00%      0.54% # attempts to use FU when none available
system.future_cpus.iq.fu_full::SimdCvt              7      0.02%      0.56% # attempts to use FU when none available
system.future_cpus.iq.fu_full::SimdMisc          9168     26.00%     26.56% # attempts to use FU when none available
system.future_cpus.iq.fu_full::SimdMult             0      0.00%     26.56% # attempts to use FU when none available
system.future_cpus.iq.fu_full::SimdMultAcc            0      0.00%     26.56% # attempts to use FU when none available
system.future_cpus.iq.fu_full::SimdShift            0      0.00%     26.56% # attempts to use FU when none available
system.future_cpus.iq.fu_full::SimdShiftAcc            0      0.00%     26.56% # attempts to use FU when none available
system.future_cpus.iq.fu_full::SimdDiv              0      0.00%     26.56% # attempts to use FU when none available
system.future_cpus.iq.fu_full::SimdSqrt             0      0.00%     26.56% # attempts to use FU when none available
system.future_cpus.iq.fu_full::SimdFloatAdd            0      0.00%     26.56% # attempts to use FU when none available
system.future_cpus.iq.fu_full::SimdFloatAlu            0      0.00%     26.56% # attempts to use FU when none available
system.future_cpus.iq.fu_full::SimdFloatCmp            0      0.00%     26.56% # attempts to use FU when none available
system.future_cpus.iq.fu_full::SimdFloatCvt            0      0.00%     26.56% # attempts to use FU when none available
system.future_cpus.iq.fu_full::SimdFloatDiv            0      0.00%     26.56% # attempts to use FU when none available
system.future_cpus.iq.fu_full::SimdFloatMisc            0      0.00%     26.56% # attempts to use FU when none available
system.future_cpus.iq.fu_full::SimdFloatMult          402      1.14%     27.70% # attempts to use FU when none available
system.future_cpus.iq.fu_full::SimdFloatMultAcc            0      0.00%     27.70% # attempts to use FU when none available
system.future_cpus.iq.fu_full::SimdFloatSqrt            0      0.00%     27.70% # attempts to use FU when none available
system.future_cpus.iq.fu_full::SimdReduceAdd            0      0.00%     27.70% # attempts to use FU when none available
system.future_cpus.iq.fu_full::SimdReduceAlu            0      0.00%     27.70% # attempts to use FU when none available
system.future_cpus.iq.fu_full::SimdReduceCmp            0      0.00%     27.70% # attempts to use FU when none available
system.future_cpus.iq.fu_full::SimdFloatReduceAdd            0      0.00%     27.70% # attempts to use FU when none available
system.future_cpus.iq.fu_full::SimdFloatReduceCmp            0      0.00%     27.70% # attempts to use FU when none available
system.future_cpus.iq.fu_full::SimdAes              0      0.00%     27.70% # attempts to use FU when none available
system.future_cpus.iq.fu_full::SimdAesMix            0      0.00%     27.70% # attempts to use FU when none available
system.future_cpus.iq.fu_full::SimdSha1Hash            0      0.00%     27.70% # attempts to use FU when none available
system.future_cpus.iq.fu_full::SimdSha1Hash2            0      0.00%     27.70% # attempts to use FU when none available
system.future_cpus.iq.fu_full::SimdSha256Hash            0      0.00%     27.70% # attempts to use FU when none available
system.future_cpus.iq.fu_full::SimdSha256Hash2            0      0.00%     27.70% # attempts to use FU when none available
system.future_cpus.iq.fu_full::SimdShaSigma2            0      0.00%     27.70% # attempts to use FU when none available
system.future_cpus.iq.fu_full::SimdShaSigma3            0      0.00%     27.70% # attempts to use FU when none available
system.future_cpus.iq.fu_full::SimdPredAlu            0      0.00%     27.70% # attempts to use FU when none available
system.future_cpus.iq.fu_full::MemRead            349      0.99%     28.69% # attempts to use FU when none available
system.future_cpus.iq.fu_full::MemWrite           256      0.73%     29.42% # attempts to use FU when none available
system.future_cpus.iq.fu_full::FloatMemRead        24874     70.54%     99.96% # attempts to use FU when none available
system.future_cpus.iq.fu_full::FloatMemWrite           13      0.04%    100.00% # attempts to use FU when none available
system.future_cpus.iq.fu_full::IprAccess            0      0.00%    100.00% # attempts to use FU when none available
system.future_cpus.iq.fu_full::InstPrefetch            0      0.00%    100.00% # attempts to use FU when none available
system.future_cpus.iq.fu_full::Accelerator            0      0.00%    100.00% # attempts to use FU when none available
system.future_cpus.iq.int_alu_accesses         571833                       # Number of integer alu accesses
system.future_cpus.iq.int_inst_queue_reads      4244839                       # Number of integer instruction queue reads
system.future_cpus.iq.int_inst_queue_wakeup_accesses       896612                       # Number of integer instruction queue wakeup accesses
system.future_cpus.iq.int_inst_queue_writes       928472                       # Number of integer instruction queue writes
system.future_cpus.iq.iqInstsAdded            1196575                       # Number of instructions added to the IQ (excludes non-spec)
system.future_cpus.iq.iqInstsIssued           1199315                       # Number of instructions issued
system.future_cpus.iq.iqNonSpecInstsAdded           82                       # Number of non-speculative instructions added to the IQ
system.future_cpus.iq.iqSquashedInstsExamined        25519                       # Number of squashed instructions iterated over during squash; mainly for profiling
system.future_cpus.iq.iqSquashedInstsIssued          101                       # Number of squashed instructions issued
system.future_cpus.iq.iqSquashedOperandsExamined        36695                       # Number of squashed operands that are examined and possibly removed from graph
system.future_cpus.iq.issued_per_cycle::samples      2442782                       # Number of insts issued each cycle
system.future_cpus.iq.issued_per_cycle::mean     0.490963                       # Number of insts issued each cycle
system.future_cpus.iq.issued_per_cycle::stdev     1.363144                       # Number of insts issued each cycle
system.future_cpus.iq.issued_per_cycle::underflows            0      0.00%      0.00% # Number of insts issued each cycle
system.future_cpus.iq.issued_per_cycle::0      2029226     83.07%     83.07% # Number of insts issued each cycle
system.future_cpus.iq.issued_per_cycle::1       157041      6.43%     89.50% # Number of insts issued each cycle
system.future_cpus.iq.issued_per_cycle::2        56900      2.33%     91.83% # Number of insts issued each cycle
system.future_cpus.iq.issued_per_cycle::3        59356      2.43%     94.26% # Number of insts issued each cycle
system.future_cpus.iq.issued_per_cycle::4        33372      1.37%     95.62% # Number of insts issued each cycle
system.future_cpus.iq.issued_per_cycle::5        60370      2.47%     98.10% # Number of insts issued each cycle
system.future_cpus.iq.issued_per_cycle::6        22393      0.92%     99.01% # Number of insts issued each cycle
system.future_cpus.iq.issued_per_cycle::7        12282      0.50%     99.52% # Number of insts issued each cycle
system.future_cpus.iq.issued_per_cycle::8        11842      0.48%    100.00% # Number of insts issued each cycle
system.future_cpus.iq.issued_per_cycle::overflows            0      0.00%    100.00% # Number of insts issued each cycle
system.future_cpus.iq.issued_per_cycle::min_value            0                       # Number of insts issued each cycle
system.future_cpus.iq.issued_per_cycle::max_value            8                       # Number of insts issued each cycle
system.future_cpus.iq.issued_per_cycle::total      2442782                       # Number of insts issued each cycle
system.future_cpus.iq.rate                   0.479873                       # Inst issue rate
system.future_cpus.iq.vec_alu_accesses              0                       # Number of vector alu accesses
system.future_cpus.iq.vec_inst_queue_reads            0                       # Number of vector instruction queue reads
system.future_cpus.iq.vec_inst_queue_wakeup_accesses            0                       # Number of vector instruction queue wakeup accesses
system.future_cpus.iq.vec_inst_queue_writes            0                       # Number of vector instruction queue writes
system.future_cpus.itb.l1Accesses               82260                       # L1 TLB accesses
system.future_cpus.itb.l1Misses                    63                       # L1 TLB misses
system.future_cpus.itb.l2Accesses                   0                       # L2 TLB accesses
system.future_cpus.itb.l2Misses                     0                       # L2 TLB misses
system.future_cpus.itb.rdAccesses                   0                       # TLB accesses on read requests
system.future_cpus.itb.rdMisses                     0                       # TLB misses on read requests
system.future_cpus.itb.wrAccesses               82260                       # TLB accesses on write requests
system.future_cpus.itb.wrMisses                    63                       # TLB misses on write requests
system.future_cpus.memDep0.conflictingLoads          311                       # Number of conflicting loads.
system.future_cpus.memDep0.conflictingStores          106                       # Number of conflicting stores.
system.future_cpus.memDep0.insertedLoads       252177                       # Number of loads inserted to the mem dependence unit.
system.future_cpus.memDep0.insertedStores        91058                       # Number of stores inserted to the mem dependence unit.
system.future_cpus.misc_regfile_reads          485924                       # number of misc regfile reads
system.future_cpus.numCycles                  2499235                       # number of cpu cycles simulated
system.future_cpus.numWorkItemsCompleted            0                       # number of work items this cpu completed
system.future_cpus.numWorkItemsStarted              0                       # number of work items this cpu started
system.future_cpus.rename.BlockCycles         1785408                       # Number of cycles rename is blocking
system.future_cpus.rename.CommittedMaps       3268598                       # Number of HB maps that are committed
system.future_cpus.rename.FullRegisterEvents       394758                       # Number of times there has been no free registers
system.future_cpus.rename.IQFullEvents          19381                       # Number of times rename has blocked due to IQ full
system.future_cpus.rename.IdleCycles           101668                       # Number of cycles rename is idle
system.future_cpus.rename.ROBFullEvents            74                       # Number of times rename has blocked due to ROB full
system.future_cpus.rename.RenameLookups       5692564                       # Number of register rename lookups that rename has made
system.future_cpus.rename.RenamedInsts        1204542                       # Number of instructions processed by rename
system.future_cpus.rename.RenamedOperands      3317160                       # Number of destination operands rename has renamed
system.future_cpus.rename.RunCycles            154722                       # Number of cycles rename is running
system.future_cpus.rename.SQFullEvents            191                       # Number of times rename has blocked due to SQ full
system.future_cpus.rename.SquashCycles            915                       # Number of cycles rename is squashing
system.future_cpus.rename.UnblockCycles        397080                       # Number of cycles rename is unblocking
system.future_cpus.rename.UndoneMaps            48465                       # Number of HB maps that are undone due to squashing
system.future_cpus.rename.fp_rename_lookups      2843381                       # Number of floating rename lookups
system.future_cpus.rename.int_rename_lookups      1647685                       # Number of integer rename lookups
system.future_cpus.rename.serializeStallCycles         2989                       # count of cycles rename stalled for serializing inst
system.future_cpus.rename.serializingInsts           82                       # count of serializing insts renamed
system.future_cpus.rename.skidInsts             82309                       # count of insts added to the skid buffer
system.future_cpus.rename.tempSerializingInsts           82                       # count of temporary serializing insts renamed
system.future_cpus.rob.rob_reads              3546369                       # The number of ROB reads
system.future_cpus.rob.rob_writes             2396406                       # The number of ROB writes
system.future_cpus.timesIdled                    1197                       # Number of times that the entire CPU went into an idle state and unscheduled itself
system.ruby.Directory_Controller.CleanReplacement |        4104     24.89%     24.89% |        4102     24.88%     49.77% |        4131     25.05%     74.82% |        4152     25.18%    100.00%
system.ruby.Directory_Controller.CleanReplacement::total        16489                      
system.ruby.Directory_Controller.Data    |          65     25.10%     25.10% |          64     24.71%     49.81% |          64     24.71%     74.52% |          66     25.48%    100.00%
system.ruby.Directory_Controller.Data::total          259                      
system.ruby.Directory_Controller.Fetch   |       12379     25.01%     25.01% |       12358     24.97%     49.98% |       12362     24.98%     74.96% |       12392     25.04%    100.00%
system.ruby.Directory_Controller.Fetch::total        49491                      
system.ruby.Directory_Controller.I.Fetch |       12379     25.01%     25.01% |       12358     24.97%     49.98% |       12362     24.98%     74.96% |       12392     25.04%    100.00%
system.ruby.Directory_Controller.I.Fetch::total        49491                      
system.ruby.Directory_Controller.IM.Memory_Data |       12379     25.01%     25.01% |       12358     24.97%     49.98% |       12362     24.98%     74.96% |       12392     25.04%    100.00%
system.ruby.Directory_Controller.IM.Memory_Data::total        49491                      
system.ruby.Directory_Controller.M.CleanReplacement |        4104     24.89%     24.89% |        4102     24.88%     49.77% |        4131     25.05%     74.82% |        4152     25.18%    100.00%
system.ruby.Directory_Controller.M.CleanReplacement::total        16489                      
system.ruby.Directory_Controller.M.Data  |          65     25.10%     25.10% |          64     24.71%     49.81% |          64     24.71%     74.52% |          66     25.48%    100.00%
system.ruby.Directory_Controller.M.Data::total          259                      
system.ruby.Directory_Controller.MI.Memory_Ack |          65     25.10%     25.10% |          64     24.71%     49.81% |          64     24.71%     74.52% |          66     25.48%    100.00%
system.ruby.Directory_Controller.MI.Memory_Ack::total          259                      
system.ruby.Directory_Controller.Memory_Ack |          65     25.10%     25.10% |          64     24.71%     49.81% |          64     24.71%     74.52% |          66     25.48%    100.00%
system.ruby.Directory_Controller.Memory_Ack::total          259                      
system.ruby.Directory_Controller.Memory_Data |       12379     25.01%     25.01% |       12358     24.97%     49.98% |       12362     24.98%     74.96% |       12392     25.04%    100.00%
system.ruby.Directory_Controller.Memory_Data::total        49491                      
system.ruby.IFETCH.hit_latency_hist_seqr::bucket_size            1                      
system.ruby.IFETCH.hit_latency_hist_seqr::max_bucket            9                      
system.ruby.IFETCH.hit_latency_hist_seqr::samples        80808                      
system.ruby.IFETCH.hit_latency_hist_seqr::mean            1                      
system.ruby.IFETCH.hit_latency_hist_seqr::gmean            1                      
system.ruby.IFETCH.hit_latency_hist_seqr |           0      0.00%      0.00% |       80808    100.00%    100.00% |           0      0.00%    100.00% |           0      0.00%    100.00% |           0      0.00%    100.00% |           0      0.00%    100.00% |           0      0.00%    100.00% |           0      0.00%    100.00% |           0      0.00%    100.00% |           0      0.00%    100.00%
system.ruby.IFETCH.hit_latency_hist_seqr::total        80808                      
system.ruby.IFETCH.latency_hist_seqr::bucket_size          128                      
system.ruby.IFETCH.latency_hist_seqr::max_bucket         1279                      
system.ruby.IFETCH.latency_hist_seqr::samples        82157                      
system.ruby.IFETCH.latency_hist_seqr::mean     2.560707                      
system.ruby.IFETCH.latency_hist_seqr::gmean     1.076592                      
system.ruby.IFETCH.latency_hist_seqr::stdev    13.617536                      
system.ruby.IFETCH.latency_hist_seqr     |       81995     99.80%     99.80% |         160      0.19%    100.00% |           0      0.00%    100.00% |           0      0.00%    100.00% |           0      0.00%    100.00% |           2      0.00%    100.00% |           0      0.00%    100.00% |           0      0.00%    100.00% |           0      0.00%    100.00% |           0      0.00%    100.00%
system.ruby.IFETCH.latency_hist_seqr::total        82157                      
system.ruby.IFETCH.miss_latency_hist_seqr::bucket_size          128                      
system.ruby.IFETCH.miss_latency_hist_seqr::max_bucket         1279                      
system.ruby.IFETCH.miss_latency_hist_seqr::samples         1349                      
system.ruby.IFETCH.miss_latency_hist_seqr::mean    96.050408                      
system.ruby.IFETCH.miss_latency_hist_seqr::gmean    89.535019                      
system.ruby.IFETCH.miss_latency_hist_seqr::stdev    49.080995                      
system.ruby.IFETCH.miss_latency_hist_seqr |        1187     87.99%     87.99% |         160     11.86%     99.85% |           0      0.00%     99.85% |           0      0.00%     99.85% |           0      0.00%     99.85% |           2      0.15%    100.00% |           0      0.00%    100.00% |           0      0.00%    100.00% |           0      0.00%    100.00% |           0      0.00%    100.00%
system.ruby.IFETCH.miss_latency_hist_seqr::total         1349                      
system.ruby.L0Cache_Controller.Data_Exclusive        73694      0.00%      0.00%
system.ruby.L0Cache_Controller.E.Ifetch         80810      0.00%      0.00%
system.ruby.L0Cache_Controller.E.Inv             3737      0.00%      0.00%
system.ruby.L0Cache_Controller.E.L0_Replacement        68207      0.00%      0.00%
system.ruby.L0Cache_Controller.E.Load           41460      0.00%      0.00%
system.ruby.L0Cache_Controller.E.Store            749      0.00%      0.00%
system.ruby.L0Cache_Controller.I.Ifetch          1351      0.00%      0.00%
system.ruby.L0Cache_Controller.I.Load           71914      0.00%      0.00%
system.ruby.L0Cache_Controller.I.Store            429      0.00%      0.00%
system.ruby.L0Cache_Controller.IM.Data_Exclusive          429      0.00%      0.00%
system.ruby.L0Cache_Controller.IM.L0_Replacement           17      0.00%      0.00%
system.ruby.L0Cache_Controller.IS.Data_Exclusive        71914      0.00%      0.00%
system.ruby.L0Cache_Controller.IS.L0_Replacement          102      0.00%      0.00%
system.ruby.L0Cache_Controller.Ifetch           82161      0.00%      0.00%
system.ruby.L0Cache_Controller.Inst_IS.Data_Exclusive         1351      0.00%      0.00%
system.ruby.L0Cache_Controller.Inv               3990      0.00%      0.00%
system.ruby.L0Cache_Controller.L0_Replacement        69237      0.00%      0.00%
system.ruby.L0Cache_Controller.Load            221151      0.00%      0.00%
system.ruby.L0Cache_Controller.M.Inv              253      0.00%      0.00%
system.ruby.L0Cache_Controller.M.L0_Replacement          911      0.00%      0.00%
system.ruby.L0Cache_Controller.M.Load          107777      0.00%      0.00%
system.ruby.L0Cache_Controller.M.Store          87417      0.00%      0.00%
system.ruby.L0Cache_Controller.Store            88595      0.00%      0.00%
system.ruby.L1Cache_Controller.Data_Exclusive        69368      0.00%      0.00%
system.ruby.L1Cache_Controller.Data_all_Acks          204      0.00%      0.00%
system.ruby.L1Cache_Controller.E.L0_Invalidate_Else         2067      0.00%      0.00%
system.ruby.L1Cache_Controller.E.L0_Invalidate_Own         1346      0.00%      0.00%
system.ruby.L1Cache_Controller.E.WriteBack        65385      0.00%      0.00%
system.ruby.L1Cache_Controller.EE.Inv            2002      0.00%      0.00%
system.ruby.L1Cache_Controller.EE.L1_Replacement         1300      0.00%      0.00%
system.ruby.L1Cache_Controller.E_IL0.L0_Ack         3302      0.00%      0.00%
system.ruby.L1Cache_Controller.E_IL0.L0_DataAck          111      0.00%      0.00%
system.ruby.L1Cache_Controller.E_IL0.L0_Invalidate_Else         2067      0.00%      0.00%
system.ruby.L1Cache_Controller.E_IL0.L0_Invalidate_Own         1346      0.00%      0.00%
system.ruby.L1Cache_Controller.I.Load           69368      0.00%      0.00%
system.ruby.L1Cache_Controller.I.Store            204      0.00%      0.00%
system.ruby.L1Cache_Controller.IM.Data_all_Acks          204      0.00%      0.00%
system.ruby.L1Cache_Controller.IS.Data_Exclusive        69368      0.00%      0.00%
system.ruby.L1Cache_Controller.Inv              11342      0.00%      0.00%
system.ruby.L1Cache_Controller.L0_Ack            3737      0.00%      0.00%
system.ruby.L1Cache_Controller.L0_DataAck          253      0.00%      0.00%
system.ruby.L1Cache_Controller.L0_Invalidate_Else         4238      0.00%      0.00%
system.ruby.L1Cache_Controller.L0_Invalidate_Own         3743      0.00%      0.00%
system.ruby.L1Cache_Controller.L1_Replacement        54247      0.00%      0.00%
system.ruby.L1Cache_Controller.Load             73267      0.00%      0.00%
system.ruby.L1Cache_Controller.M.L0_Invalidate_Else           52      0.00%      0.00%
system.ruby.L1Cache_Controller.M.L0_Invalidate_Own          525      0.00%      0.00%
system.ruby.L1Cache_Controller.M.WriteBack         3733      0.00%      0.00%
system.ruby.L1Cache_Controller.MM.Inv            9336      0.00%      0.00%
system.ruby.L1Cache_Controller.MM.L1_Replacement        52947      0.00%      0.00%
system.ruby.L1Cache_Controller.MM.Load           3897      0.00%      0.00%
system.ruby.L1Cache_Controller.MM.Store           225      0.00%      0.00%
system.ruby.L1Cache_Controller.M_I.Inv              4      0.00%      0.00%
system.ruby.L1Cache_Controller.M_I.Load             2      0.00%      0.00%
system.ruby.L1Cache_Controller.M_I.WB_Ack        54243      0.00%      0.00%
system.ruby.L1Cache_Controller.M_IL0.L0_Ack          435      0.00%      0.00%
system.ruby.L1Cache_Controller.M_IL0.L0_DataAck          142      0.00%      0.00%
system.ruby.L1Cache_Controller.M_IL0.L0_Invalidate_Else           52      0.00%      0.00%
system.ruby.L1Cache_Controller.M_IL0.L0_Invalidate_Own          526      0.00%      0.00%
system.ruby.L1Cache_Controller.SINK_WB_ACK.WB_Ack            4      0.00%      0.00%
system.ruby.L1Cache_Controller.Store              429      0.00%      0.00%
system.ruby.L1Cache_Controller.WB_Ack           54247      0.00%      0.00%
system.ruby.L1Cache_Controller.WriteBack        69118      0.00%      0.00%
system.ruby.L2Cache_Controller.Ack_all           2002      0.00%      0.00%
system.ruby.L2Cache_Controller.Exclusive_Unblock        69572      0.00%      0.00%
system.ruby.L2Cache_Controller.IM.Mem_Data           18      0.00%      0.00%
system.ruby.L2Cache_Controller.ISS.L2_Replacement_clean            5      0.00%      0.00%
system.ruby.L2Cache_Controller.ISS.Mem_Data        49473      0.00%      0.00%
system.ruby.L2Cache_Controller.L1_GETS          69368      0.00%      0.00%
system.ruby.L2Cache_Controller.L1_GETX            204      0.00%      0.00%
system.ruby.L2Cache_Controller.L1_PUTX          54243      0.00%      0.00%
system.ruby.L2Cache_Controller.L1_PUTX_old            4      0.00%      0.00%
system.ruby.L2Cache_Controller.L2_Replacement          132      0.00%      0.00%
system.ruby.L2Cache_Controller.L2_Replacement_clean        16621      0.00%      0.00%
system.ruby.L2Cache_Controller.M.L1_GETS        19895      0.00%      0.00%
system.ruby.L2Cache_Controller.M.L1_GETX          186      0.00%      0.00%
system.ruby.L2Cache_Controller.M.L2_Replacement          132      0.00%      0.00%
system.ruby.L2Cache_Controller.M.L2_Replacement_clean         5274      0.00%      0.00%
system.ruby.L2Cache_Controller.MCT_I.Ack_all         2002      0.00%      0.00%
system.ruby.L2Cache_Controller.MCT_I.WB_Data          127      0.00%      0.00%
system.ruby.L2Cache_Controller.MCT_I.WB_Data_clean         9213      0.00%      0.00%
system.ruby.L2Cache_Controller.MT.L1_PUTX        54243      0.00%      0.00%
system.ruby.L2Cache_Controller.MT.L2_Replacement_clean        11342      0.00%      0.00%
system.ruby.L2Cache_Controller.MT_MB.Exclusive_Unblock        69572      0.00%      0.00%
system.ruby.L2Cache_Controller.M_I.Mem_Ack        16748      0.00%      0.00%
system.ruby.L2Cache_Controller.Mem_Ack          16748      0.00%      0.00%
[...]
system.mem_ctrls3.avgWrBWSys                     3.38                       # Average system write bandwidth in MiByte/s
system.mem_ctrls3.peakBW                     12800.00                       # Theoretical peak bandwidth in MiByte/s
system.mem_ctrls3.busUtil                        4.97                       # Data bus utilization in percentage
system.mem_ctrls3.busUtilRead                    4.95                       # Data bus utilization in percentage for reads
system.mem_ctrls3.busUtilWrite                   0.01                       # Data bus utilization in percentage for writes
system.mem_ctrls3.totGap                   1249734500                       # Total gap between requests
system.mem_ctrls3.avgGap                    100323.87                       # Average gap between requests
system.mem_ctrls3.masterReadBytes::.ruby.dir_cntrl3       792320                       # Per-master bytes read from memory
system.mem_ctrls3.masterWriteBytes::.ruby.dir_cntrl3         2368                       # Per-master bytes write to memory
system.mem_ctrls3.masterReadRate::.ruby.dir_cntrl3 634050019.305907607079                       # Per-master bytes read from memory rate (Bytes/sec)
system.mem_ctrls3.masterWriteRate::.ruby.dir_cntrl3 1894979.863838334568                       # Per-master bytes write to memory rate (Bytes/sec)
system.mem_ctrls3.masterReadAccesses::.ruby.dir_cntrl3        12391                       # Per-master read serviced memory accesses
system.mem_ctrls3.masterWriteAccesses::.ruby.dir_cntrl3           66                       # Per-master write serviced memory accesses
system.mem_ctrls3.masterReadTotalLat::.ruby.dir_cntrl3    482876527                       # Per-master read total memory access latency
system.mem_ctrls3.masterWriteTotalLat::.ruby.dir_cntrl3   9000667500                       # Per-master write total memory access latency
system.mem_ctrls3.masterReadAvgLat::.ruby.dir_cntrl3     38969.94                       # Per-master read average memory access latency
system.mem_ctrls3.masterWriteAvgLat::.ruby.dir_cntrl3 136373750.00                       # Per-master write average memory access latency
system.mem_ctrls3.pageHitRate                   59.53                       # Row buffer hit rate, read and write combined
system.mem_ctrls3.power_state.pwrStateResidencyTicks::UNDEFINED   1465782000                       # Cumulative time (in ticks) in various power states
system.mem_ctrls3.rank0.actEnergy            16229220                       # Energy for activate commands per rank (pJ)
system.mem_ctrls3.rank0.preEnergy             8603265                       # Energy for precharge commands per rank (pJ)
system.mem_ctrls3.rank0.readEnergy           42040320                       # Energy for read commands per rank (pJ)
system.mem_ctrls3.rank0.writeEnergy                 0                       # Energy for write commands per rank (pJ)
system.mem_ctrls3.rank0.refreshEnergy    98342400.000000                       # Energy for refresh commands per rank (pJ)
system.mem_ctrls3.rank0.actBackEnergy       534421170                       # Energy for active background per rank (pJ)
system.mem_ctrls3.rank0.preBackEnergy        29892000                       # Energy for precharge background per rank (pJ)
system.mem_ctrls3.rank0.actPowerDownEnergy            0                       # Energy for active power-down per rank (pJ)
system.mem_ctrls3.rank0.prePowerDownEnergy            0                       # Energy for precharge power-down per rank (pJ)
system.mem_ctrls3.rank0.selfRefreshEnergy            0                       # Energy for self refresh per rank (pJ)
system.mem_ctrls3.rank0.totalEnergy         729528375                       # Total energy per rank (pJ)
system.mem_ctrls3.rank0.averagePower       583.801343                       # Core power per rank (mW)
system.mem_ctrls3.rank0.totalIdleTime               0                       # Total Idle time Per DRAM Rank
system.mem_ctrls3.rank0.memoryStateTime::IDLE     73355097                       # Time in different power states
system.mem_ctrls3.rank0.memoryStateTime::REF     41600000                       # Time in different power states
system.mem_ctrls3.rank0.memoryStateTime::SREF            0                       # Time in different power states
system.mem_ctrls3.rank0.memoryStateTime::PRE_PDN            0                       # Time in different power states
system.mem_ctrls3.rank0.memoryStateTime::ACT   1134865402                       # Time in different power states
system.mem_ctrls3.rank0.memoryStateTime::ACT_PDN            0                       # Time in different power states
system.mem_ctrls3.rank1.actEnergy            19549320                       # Energy for activate commands per rank (pJ)
system.mem_ctrls3.rank1.preEnergy            10371735                       # Energy for precharge commands per rank (pJ)
system.mem_ctrls3.rank1.readEnergy           46360020                       # Energy for read commands per rank (pJ)
system.mem_ctrls3.rank1.writeEnergy            193140                       # Energy for write commands per rank (pJ)
system.mem_ctrls3.rank1.refreshEnergy    98342400.000000                       # Energy for refresh commands per rank (pJ)
system.mem_ctrls3.rank1.actBackEnergy       545207280                       # Energy for active background per rank (pJ)
system.mem_ctrls3.rank1.preBackEnergy        20112960                       # Energy for precharge background per rank (pJ)
system.mem_ctrls3.rank1.actPowerDownEnergy            0                       # Energy for active power-down per rank (pJ)
system.mem_ctrls3.rank1.prePowerDownEnergy            0                       # Energy for precharge power-down per rank (pJ)
system.mem_ctrls3.rank1.selfRefreshEnergy            0                       # Energy for self refresh per rank (pJ)
system.mem_ctrls3.rank1.totalEnergy         740136855                       # Total energy per rank (pJ)
system.mem_ctrls3.rank1.averagePower       592.290725                       # Core power per rank (mW)
system.mem_ctrls3.rank1.totalIdleTime               0                       # Total Idle time Per DRAM Rank
system.mem_ctrls3.rank1.memoryStateTime::IDLE     49754578                       # Time in different power states
system.mem_ctrls3.rank1.memoryStateTime::REF     41600000                       # Time in different power states
system.mem_ctrls3.rank1.memoryStateTime::SREF            0                       # Time in different power states
system.mem_ctrls3.rank1.memoryStateTime::PRE_PDN            0                       # Time in different power states
system.mem_ctrls3.rank1.memoryStateTime::ACT   1158619922                       # Time in different power states
system.mem_ctrls3.rank1.memoryStateTime::ACT_PDN            0                       # Time in different power states
system.ruby.clk_domain.clock                      500                       # Clock period in ticks
system.ruby.dir_cntrl0.power_state.pwrStateResidencyTicks::UNDEFINED   1465782000                       # Cumulative time (in ticks) in various power states
system.ruby.dir_cntrl1.power_state.pwrStateResidencyTicks::UNDEFINED   1465782000                       # Cumulative time (in ticks) in various power states
system.ruby.dir_cntrl2.power_state.pwrStateResidencyTicks::UNDEFINED   1465782000                       # Cumulative time (in ticks) in various power states
system.ruby.dir_cntrl3.power_state.pwrStateResidencyTicks::UNDEFINED   1465782000                       # Cumulative time (in ticks) in various power states
system.ruby.l0_cntrl0.power_state.pwrStateResidencyTicks::UNDEFINED   1465782000                       # Cumulative time (in ticks) in various power states
system.ruby.l0_cntrl0.sequencer.power_state.pwrStateResidencyTicks::UNDEFINED   1465782000                       # Cumulative time (in ticks) in various power states
system.ruby.l1_cntrl0.power_state.pwrStateResidencyTicks::UNDEFINED   1465782000                       # Cumulative time (in ticks) in various power states
system.ruby.l2_cntrl0.power_state.pwrStateResidencyTicks::UNDEFINED   1465782000                       # Cumulative time (in ticks) in various power states
system.ruby.memctrl_clk_domain.clock             1500                       # Clock period in ticks
system.ruby.network.ext_links0.credit_links0.power_state.pwrStateResidencyTicks::UNDEFINED   1465782000                       # Cumulative time (in ticks) in various power states
system.ruby.network.ext_links0.credit_links1.power_state.pwrStateResidencyTicks::UNDEFINED   1465782000                       # Cumulative time (in ticks) in various power states
system.ruby.network.ext_links0.network_links0.power_state.pwrStateResidencyTicks::UNDEFINED   1465782000                       # Cumulative time (in ticks) in various power states
system.ruby.network.ext_links0.network_links1.power_state.pwrStateResidencyTicks::UNDEFINED   1465782000                       # Cumulative time (in ticks) in various power states
system.ruby.network.ext_links1.credit_links0.power_state.pwrStateResidencyTicks::UNDEFINED   1465782000                       # Cumulative time (in ticks) in various power states
system.ruby.network.ext_links1.credit_links1.power_state.pwrStateResidencyTicks::UNDEFINED   1465782000                       # Cumulative time (in ticks) in various power states
system.ruby.network.ext_links1.network_links0.power_state.pwrStateResidencyTicks::UNDEFINED   1465782000                       # Cumulative time (in ticks) in various power states
system.ruby.network.ext_links1.network_links1.power_state.pwrStateResidencyTicks::UNDEFINED   1465782000                       # Cumulative time (in ticks) in various power states
system.ruby.network.ext_links2.credit_links0.power_state.pwrStateResidencyTicks::UNDEFINED   1465782000                       # Cumulative time (in ticks) in various power states
system.ruby.network.ext_links2.credit_links1.power_state.pwrStateResidencyTicks::UNDEFINED   1465782000                       # Cumulative time (in ticks) in various power states
system.ruby.network.ext_links2.network_links0.power_state.pwrStateResidencyTicks::UNDEFINED   1465782000                       # Cumulative time (in ticks) in various power states
system.ruby.network.ext_links2.network_links1.power_state.pwrStateResidencyTicks::UNDEFINED   1465782000                       # Cumulative time (in ticks) in various power states
system.ruby.network.ext_links3.credit_links0.power_state.pwrStateResidencyTicks::UNDEFINED   1465782000                       # Cumulative time (in ticks) in various power states
system.ruby.network.ext_links3.credit_links1.power_state.pwrStateResidencyTicks::UNDEFINED   1465782000                       # Cumulative time (in ticks) in various power states
system.ruby.network.ext_links3.network_links0.power_state.pwrStateResidencyTicks::UNDEFINED   1465782000                       # Cumulative time (in ticks) in various power states
system.ruby.network.ext_links3.network_links1.power_state.pwrStateResidencyTicks::UNDEFINED   1465782000                       # Cumulative time (in ticks) in various power states
system.ruby.network.ext_links4.credit_links0.power_state.pwrStateResidencyTicks::UNDEFINED   1465782000                       # Cumulative time (in ticks) in various power states
system.ruby.network.ext_links4.credit_links1.power_state.pwrStateResidencyTicks::UNDEFINED   1465782000                       # Cumulative time (in ticks) in various power states
system.ruby.network.ext_links4.network_links0.power_state.pwrStateResidencyTicks::UNDEFINED   1465782000                       # Cumulative time (in ticks) in various power states
system.ruby.network.ext_links4.network_links1.power_state.pwrStateResidencyTicks::UNDEFINED   1465782000                       # Cumulative time (in ticks) in various power states
system.ruby.network.ext_links5.credit_links0.power_state.pwrStateResidencyTicks::UNDEFINED   1465782000                       # Cumulative time (in ticks) in various power states
system.ruby.network.ext_links5.credit_links1.power_state.pwrStateResidencyTicks::UNDEFINED   1465782000                       # Cumulative time (in ticks) in various power states
system.ruby.network.ext_links5.network_links0.power_state.pwrStateResidencyTicks::UNDEFINED   1465782000                       # Cumulative time (in ticks) in various power states
system.ruby.network.ext_links5.network_links1.power_state.pwrStateResidencyTicks::UNDEFINED   1465782000                       # Cumulative time (in ticks) in various power states
system.ruby.network.ext_links6.credit_links0.power_state.pwrStateResidencyTicks::UNDEFINED   1465782000                       # Cumulative time (in ticks) in various power states
system.ruby.network.ext_links6.credit_links1.power_state.pwrStateResidencyTicks::UNDEFINED   1465782000                       # Cumulative time (in ticks) in various power states
system.ruby.network.ext_links6.network_links0.power_state.pwrStateResidencyTicks::UNDEFINED   1465782000                       # Cumulative time (in ticks) in various power states
system.ruby.network.ext_links6.network_links1.power_state.pwrStateResidencyTicks::UNDEFINED   1465782000                       # Cumulative time (in ticks) in various power states
system.ruby.network.netifs0.power_state.pwrStateResidencyTicks::UNDEFINED   1465782000                       # Cumulative time (in ticks) in various power states
system.ruby.network.netifs1.power_state.pwrStateResidencyTicks::UNDEFINED   1465782000                       # Cumulative time (in ticks) in various power states
system.ruby.network.netifs2.power_state.pwrStateResidencyTicks::UNDEFINED   1465782000                       # Cumulative time (in ticks) in various power states
system.ruby.network.netifs3.power_state.pwrStateResidencyTicks::UNDEFINED   1465782000                       # Cumulative time (in ticks) in various power states
system.ruby.network.netifs4.power_state.pwrStateResidencyTicks::UNDEFINED   1465782000                       # Cumulative time (in ticks) in various power states
system.ruby.network.netifs5.power_state.pwrStateResidencyTicks::UNDEFINED   1465782000                       # Cumulative time (in ticks) in various power states
system.ruby.network.netifs6.power_state.pwrStateResidencyTicks::UNDEFINED   1465782000                       # Cumulative time (in ticks) in various power states
system.ruby.network.power_state.pwrStateResidencyTicks::UNDEFINED   1465782000                       # Cumulative time (in ticks) in various power states
system.ruby.network.routers.power_state.pwrStateResidencyTicks::UNDEFINED   1465782000                       # Cumulative time (in ticks) in various power states
system.ruby.phys_mem.bytes_read::.cpu.inst      1659584                       # Number of bytes read from this memory
system.ruby.phys_mem.bytes_read::.cpu.data       249108                       # Number of bytes read from this memory
system.ruby.phys_mem.bytes_read::.future_cpus.inst      5262080                       # Number of bytes read from this memory
system.ruby.phys_mem.bytes_read::.future_cpus.data      9578355                       # Number of bytes read from this memory
system.ruby.phys_mem.bytes_read::total       16749127                       # Number of bytes read from this memory
system.ruby.phys_mem.bytes_inst_read::.cpu.inst      1659584                       # Number of instructions bytes read from this memory
system.ruby.phys_mem.bytes_inst_read::.future_cpus.inst      5262080                       # Number of instructions bytes read from this memory
system.ruby.phys_mem.bytes_inst_read::total      6921664                       # Number of instructions bytes read from this memory
system.ruby.phys_mem.bytes_written::.cpu.data       207971                       # Number of bytes written to this memory
system.ruby.phys_mem.bytes_written::.future_cpus.data      4538786                       # Number of bytes written to this memory
system.ruby.phys_mem.bytes_written::total      4746757                       # Number of bytes written to this memory
system.ruby.phys_mem.num_reads::.cpu.inst       207448                       # Number of read requests responded to by this memory
system.ruby.phys_mem.num_reads::.cpu.data        42915                       # Number of read requests responded to by this memory
system.ruby.phys_mem.num_reads::.future_cpus.inst        82220                       # Number of read requests responded to by this memory
system.ruby.phys_mem.num_reads::.future_cpus.data       240635                       # Number of read requests responded to by this memory
system.ruby.phys_mem.num_reads::total          573218                       # Number of read requests responded to by this memory
system.ruby.phys_mem.num_writes::.cpu.data        27374                       # Number of write requests responded to by this memory
system.ruby.phys_mem.num_writes::.future_cpus.data        88287                       # Number of write requests responded to by this memory
system.ruby.phys_mem.num_writes::total         115661                       # Number of write requests responded to by this memory
system.ruby.phys_mem.bw_read::.cpu.inst    1328073591                       # Total read bandwidth from this memory (bytes/s)
system.ruby.phys_mem.bw_read::.cpu.data     199347400                       # Total read bandwidth from this memory (bytes/s)
system.ruby.phys_mem.bw_read::.future_cpus.inst   4210952551                       # Total read bandwidth from this memory (bytes/s)
system.ruby.phys_mem.bw_read::.future_cpus.data   7665029499                       # Total read bandwidth from this memory (bytes/s)
system.ruby.phys_mem.bw_read::total       13403403041                       # Total read bandwidth from this memory (bytes/s)
system.ruby.phys_mem.bw_inst_read::.cpu.inst   1328073591                       # Instruction read bandwidth from this memory (bytes/s)
system.ruby.phys_mem.bw_inst_read::.future_cpus.inst   4210952551                       # Instruction read bandwidth from this memory (bytes/s)
system.ruby.phys_mem.bw_inst_read::total   5539026142                       # Instruction read bandwidth from this memory (bytes/s)
system.ruby.phys_mem.bw_write::.cpu.data    166427727                       # Write bandwidth from this memory (bytes/s)
system.ruby.phys_mem.bw_write::.future_cpus.data   3632140235                       # Write bandwidth from this memory (bytes/s)
system.ruby.phys_mem.bw_write::total       3798567962                       # Write bandwidth from this memory (bytes/s)
system.ruby.phys_mem.bw_total::.cpu.inst   1328073591                       # Total bandwidth to/from this memory (bytes/s)
system.ruby.phys_mem.bw_total::.cpu.data    365775127                       # Total bandwidth to/from this memory (bytes/s)
system.ruby.phys_mem.bw_total::.future_cpus.inst   4210952551                       # Total bandwidth to/from this memory (bytes/s)
system.ruby.phys_mem.bw_total::.future_cpus.data  11297169734                       # Total bandwidth to/from this memory (bytes/s)
system.ruby.phys_mem.bw_total::total      17201971003                       # Total bandwidth to/from this memory (bytes/s)
system.ruby.phys_mem.power_state.pwrStateResidencyTicks::UNDEFINED   1465782000                       # Cumulative time (in ticks) in various power states
system.ruby.power_state.pwrStateResidencyTicks::UNDEFINED   1465782000                       # Cumulative time (in ticks) in various power states
system.sys_port_proxy.power_state.pwrStateResidencyTicks::UNDEFINED   1465782000                       # Cumulative time (in ticks) in various power states
system.voltage_domain.voltage                       1                       # Voltage in Volts

---------- End Simulation Statistics   ----------
