
---------- Begin Simulation Statistics ----------
final_tick                                  710958500                       # Number of ticks from beginning of simulation (restored from checkpoints and never reset)
host_inst_rate                                 479569                       # Simulator instruction rate (inst/s)
host_mem_usage                               35821308                       # Number of bytes of host memory used
host_op_rate                                   944653                       # Simulator op (including micro ops) rate (op/s)
host_seconds                                     1.25                       # Real time elapsed on the host
host_tick_rate                              107124940                       # Simulator tick rate (ticks/s)
sim_freq                                 1000000000000                       # Frequency of simulated ticks
sim_insts                                      599579                       # Number of instructions simulated
sim_ops                                       1181105                       # Number of ops (including micro ops) simulated
sim_seconds                                  0.000134                       # Number of seconds simulated
sim_ticks                                   133940000                       # Number of ticks simulated
system.cpu.accelManager.stream.numAccessFootprintL1::samples            0                       # Number of accesses with footprint at L1.
system.cpu.accelManager.stream.numAccessFootprintL1::mean          nan                       # Number of accesses with footprint at L1.
system.cpu.accelManager.stream.numAccessFootprintL1::stdev          nan                       # Number of accesses with footprint at L1.
system.cpu.accelManager.stream.numAccessFootprintL1::underflows            0                       # Number of accesses with footprint at L1.
system.cpu.accelManager.stream.numAccessFootprintL1::0-99            0                       # Number of accesses with footprint at L1.
system.cpu.accelManager.stream.numAccessFootprintL1::100-199            0                       # Number of accesses with footprint at L1.
system.cpu.accelManager.stream.numAccessFootprintL1::200-299            0                       # Number of accesses with footprint at L1.
system.cpu.accelManager.stream.numAccessFootprintL1::300-399            0                       # Number of accesses with footprint at L1.
system.cpu.accelManager.stream.numAccessFootprintL1::400-499            0                       # Number of accesses with footprint at L1.
system.cpu.accelManager.stream.numAccessFootprintL1::500            0                       # Number of accesses with footprint at L1.
system.cpu.accelManager.stream.numAccessFootprintL1::overflows            0                       # Number of accesses with footprint at L1.
system.cpu.accelManager.stream.numAccessFootprintL1::min_value            0                       # Number of accesses with footprint at L1.
system.cpu.accelManager.stream.numAccessFootprintL1::max_value            0                       # Number of accesses with footprint at L1.
system.cpu.accelManager.stream.numAccessFootprintL1::total            0                       # Number of accesses with footprint at L1.
system.cpu.accelManager.stream.numAccessFootprintL2::samples            0                       # Number of accesses with footprint at L2.
system.cpu.accelManager.stream.numAccessFootprintL2::mean          nan                       # Number of accesses with footprint at L2.
system.cpu.accelManager.stream.numAccessFootprintL2::stdev          nan                       # Number of accesses with footprint at L2.
system.cpu.accelManager.stream.numAccessFootprintL2::underflows            0                       # Number of accesses with footprint at L2.
system.cpu.accelManager.stream.numAccessFootprintL2::0-1023            0                       # Number of accesses with footprint at L2.
system.cpu.accelManager.stream.numAccessFootprintL2::1024-2047            0                       # Number of accesses with footprint at L2.
system.cpu.accelManager.stream.numAccessFootprintL2::2048-3071            0                       # Number of accesses with footprint at L2.
system.cpu.accelManager.stream.numAccessFootprintL2::3072-4095            0                       # Number of accesses with footprint at L2.
system.cpu.accelManager.stream.numAccessFootprintL2::4096            0                       # Number of accesses with footprint at L2.
system.cpu.accelManager.stream.numAccessFootprintL2::overflows            0                       # Number of accesses with footprint at L2.
system.cpu.accelManager.stream.numAccessFootprintL2::min_value            0                       # Number of accesses with footprint at L2.
system.cpu.accelManager.stream.numAccessFootprintL2::max_value            0                       # Number of accesses with footprint at L2.
system.cpu.accelManager.stream.numAccessFootprintL2::total            0                       # Number of accesses with footprint at L2.
system.cpu.accelManager.stream.numAccessFootprintL3::samples            0                       # Number of accesses with footprint at L3.
system.cpu.accelManager.stream.numAccessFootprintL3::mean          nan                       # Number of accesses with footprint at L3.
system.cpu.accelManager.stream.numAccessFootprintL3::stdev          nan                       # Number of accesses with footprint at L3.
system.cpu.accelManager.stream.numAccessFootprintL3::underflows            0                       # Number of accesses with footprint at L3.
system.cpu.accelManager.stream.numAccessFootprintL3::0-26213            0                       # Number of accesses with footprint at L3.
system.cpu.accelManager.stream.numAccessFootprintL3::26214-52427            0                       # Number of accesses with footprint at L3.
system.cpu.accelManager.stream.numAccessFootprintL3::52428-78641            0                       # Number of accesses with footprint at L3.
system.cpu.accelManager.stream.numAccessFootprintL3::78642-104855            0                       # Number of accesses with footprint at L3.
system.cpu.accelManager.stream.numAccessFootprintL3::104856-131069            0                       # Number of accesses with footprint at L3.
system.cpu.accelManager.stream.numAccessFootprintL3::131070-131072            0                       # Number of accesses with footprint at L3.
system.cpu.accelManager.stream.numAccessFootprintL3::overflows            0                       # Number of accesses with footprint at L3.
system.cpu.accelManager.stream.numAccessFootprintL3::min_value            0                       # Number of accesses with footprint at L3.
system.cpu.accelManager.stream.numAccessFootprintL3::max_value            0                       # Number of accesses with footprint at L3.
system.cpu.accelManager.stream.numAccessFootprintL3::total            0                       # Number of accesses with footprint at L3.
system.cpu.accelManager.stream.numAccessHitHigherThanPlacedCacheLevel::0            0                       # Number of accesses hit in higher level than placed cache.
system.cpu.accelManager.stream.numAccessHitHigherThanPlacedCacheLevel::1            0                       # Number of accesses hit in higher level than placed cache.
system.cpu.accelManager.stream.numAccessHitHigherThanPlacedCacheLevel::2            0                       # Number of accesses hit in higher level than placed cache.
system.cpu.accelManager.stream.numAccessHitHigherThanPlacedCacheLevel::total            0                       # Number of accesses hit in higher level than placed cache.
system.cpu.accelManager.stream.numAccessHitLowerThanPlacedCacheLevel::0            0                       # Number of accesses hit in lower level than placed cache.
system.cpu.accelManager.stream.numAccessHitLowerThanPlacedCacheLevel::1            0                       # Number of accesses hit in lower level than placed cache.
system.cpu.accelManager.stream.numAccessHitLowerThanPlacedCacheLevel::2            0                       # Number of accesses hit in lower level than placed cache.
system.cpu.accelManager.stream.numAccessHitLowerThanPlacedCacheLevel::total            0                       # Number of accesses hit in lower level than placed cache.
system.cpu.accelManager.stream.numAccessPlacedInCacheLevel::0            0                       # Number of accesses placed in different cache level.
system.cpu.accelManager.stream.numAccessPlacedInCacheLevel::1            0                       # Number of accesses placed in different cache level.
system.cpu.accelManager.stream.numAccessPlacedInCacheLevel::2            0                       # Number of accesses placed in different cache level.
system.cpu.accelManager.stream.numAccessPlacedInCacheLevel::total            0                       # Number of accesses placed in different cache level.
system.cpu.accelManager.stream.numInflyStreamDist::samples            0                       # Distribution of infly stream requests.
system.cpu.accelManager.stream.numInflyStreamDist::mean          nan                       # Distribution of infly stream requests.
system.cpu.accelManager.stream.numInflyStreamDist::stdev          nan                       # Distribution of infly stream requests.
system.cpu.accelManager.stream.numInflyStreamDist::underflows            0                       # Distribution of infly stream requests.
system.cpu.accelManager.stream.numInflyStreamDist::0            0                       # Distribution of infly stream requests.
system.cpu.accelManager.stream.numInflyStreamDist::1            0                       # Distribution of infly stream requests.
system.cpu.accelManager.stream.numInflyStreamDist::2            0                       # Distribution of infly stream requests.
system.cpu.accelManager.stream.numInflyStreamDist::3            0                       # Distribution of infly stream requests.
system.cpu.accelManager.stream.numInflyStreamDist::4            0                       # Distribution of infly stream requests.
system.cpu.accelManager.stream.numInflyStreamDist::5            0                       # Distribution of infly stream requests.
system.cpu.accelManager.stream.numInflyStreamDist::6            0                       # Distribution of infly stream requests.
system.cpu.accelManager.stream.numInflyStreamDist::7            0                       # Distribution of infly stream requests.
system.cpu.accelManager.stream.numInflyStreamDist::8            0                       # Distribution of infly stream requests.
system.cpu.accelManager.stream.numInflyStreamDist::9            0                       # Distribution of infly stream requests.
system.cpu.accelManager.stream.numInflyStreamDist::10            0                       # Distribution of infly stream requests.
system.cpu.accelManager.stream.numInflyStreamDist::11            0                       # Distribution of infly stream requests.
system.cpu.accelManager.stream.numInflyStreamDist::12            0                       # Distribution of infly stream requests.
system.cpu.accelManager.stream.numInflyStreamDist::13            0                       # Distribution of infly stream requests.
system.cpu.accelManager.stream.numInflyStreamDist::14            0                       # Distribution of infly stream requests.
system.cpu.accelManager.stream.numInflyStreamDist::15            0                       # Distribution of infly stream requests.
system.cpu.accelManager.stream.numInflyStreamDist::16            0                       # Distribution of infly stream requests.
system.cpu.accelManager.stream.numInflyStreamDist::overflows            0                       # Distribution of infly stream requests.
system.cpu.accelManager.stream.numInflyStreamDist::min_value            0                       # Distribution of infly stream requests.
system.cpu.accelManager.stream.numInflyStreamDist::max_value            0                       # Distribution of infly stream requests.
system.cpu.accelManager.stream.numInflyStreamDist::total            0                       # Distribution of infly stream requests.
system.cpu.accelManager.stream.numRunAHeadLengthDist::samples            0                       # Number of run ahead length for streams.
system.cpu.accelManager.stream.numRunAHeadLengthDist::mean          nan                       # Number of run ahead length for streams.
system.cpu.accelManager.stream.numRunAHeadLengthDist::stdev          nan                       # Number of run ahead length for streams.
system.cpu.accelManager.stream.numRunAHeadLengthDist::underflows            0                       # Number of run ahead length for streams.
system.cpu.accelManager.stream.numRunAHeadLengthDist::0            0                       # Number of run ahead length for streams.
system.cpu.accelManager.stream.numRunAHeadLengthDist::1            0                       # Number of run ahead length for streams.
system.cpu.accelManager.stream.numRunAHeadLengthDist::2            0                       # Number of run ahead length for streams.
system.cpu.accelManager.stream.numRunAHeadLengthDist::3            0                       # Number of run ahead length for streams.
system.cpu.accelManager.stream.numRunAHeadLengthDist::4            0                       # Number of run ahead length for streams.
system.cpu.accelManager.stream.numRunAHeadLengthDist::5            0                       # Number of run ahead length for streams.
system.cpu.accelManager.stream.numRunAHeadLengthDist::6            0                       # Number of run ahead length for streams.
system.cpu.accelManager.stream.numRunAHeadLengthDist::7            0                       # Number of run ahead length for streams.
system.cpu.accelManager.stream.numRunAHeadLengthDist::8            0                       # Number of run ahead length for streams.
system.cpu.accelManager.stream.numRunAHeadLengthDist::9            0                       # Number of run ahead length for streams.
system.cpu.accelManager.stream.numRunAHeadLengthDist::10            0                       # Number of run ahead length for streams.
system.cpu.accelManager.stream.numRunAHeadLengthDist::11            0                       # Number of run ahead length for streams.
system.cpu.accelManager.stream.numRunAHeadLengthDist::12            0                       # Number of run ahead length for streams.
system.cpu.accelManager.stream.numRunAHeadLengthDist::13            0                       # Number of run ahead length for streams.
system.cpu.accelManager.stream.numRunAHeadLengthDist::14            0                       # Number of run ahead length for streams.
system.cpu.accelManager.stream.numRunAHeadLengthDist::15            0                       # Number of run ahead length for streams.
system.cpu.accelManager.stream.numRunAHeadLengthDist::overflows            0                       # Number of run ahead length for streams.
system.cpu.accelManager.stream.numRunAHeadLengthDist::min_value            0                       # Number of run ahead length for streams.
system.cpu.accelManager.stream.numRunAHeadLengthDist::max_value            0                       # Number of run ahead length for streams.
system.cpu.accelManager.stream.numRunAHeadLengthDist::total            0                       # Number of run ahead length for streams.
system.cpu.accelManager.stream.numTotalAliveCacheBlocks::samples            0                       # Number of alive cache blocks in each cycle.
system.cpu.accelManager.stream.numTotalAliveCacheBlocks::mean          nan                       # Number of alive cache blocks in each cycle.
system.cpu.accelManager.stream.numTotalAliveCacheBlocks::stdev          nan                       # Number of alive cache blocks in each cycle.
system.cpu.accelManager.stream.numTotalAliveCacheBlocks::underflows            0                       # Number of alive cache blocks in each cycle.
system.cpu.accelManager.stream.numTotalAliveCacheBlocks::0-49            0                       # Number of alive cache blocks in each cycle.
system.cpu.accelManager.stream.numTotalAliveCacheBlocks::50-99            0                       # Number of alive cache blocks in each cycle.
system.cpu.accelManager.stream.numTotalAliveCacheBlocks::100-149            0                       # Number of alive cache blocks in each cycle.
system.cpu.accelManager.stream.numTotalAliveCacheBlocks::150-199            0                       # Number of alive cache blocks in each cycle.
system.cpu.accelManager.stream.numTotalAliveCacheBlocks::200-249            0                       # Number of alive cache blocks in each cycle.
system.cpu.accelManager.stream.numTotalAliveCacheBlocks::250-299            0                       # Number of alive cache blocks in each cycle.
system.cpu.accelManager.stream.numTotalAliveCacheBlocks::300-349            0                       # Number of alive cache blocks in each cycle.
system.cpu.accelManager.stream.numTotalAliveCacheBlocks::350-399            0                       # Number of alive cache blocks in each cycle.
system.cpu.accelManager.stream.numTotalAliveCacheBlocks::400-449            0                       # Number of alive cache blocks in each cycle.
system.cpu.accelManager.stream.numTotalAliveCacheBlocks::450-499            0                       # Number of alive cache blocks in each cycle.
system.cpu.accelManager.stream.numTotalAliveCacheBlocks::500-549            0                       # Number of alive cache blocks in each cycle.
system.cpu.accelManager.stream.numTotalAliveCacheBlocks::550-599            0                       # Number of alive cache blocks in each cycle.
system.cpu.accelManager.stream.numTotalAliveCacheBlocks::600-649            0                       # Number of alive cache blocks in each cycle.
system.cpu.accelManager.stream.numTotalAliveCacheBlocks::650-699            0                       # Number of alive cache blocks in each cycle.
system.cpu.accelManager.stream.numTotalAliveCacheBlocks::700-749            0                       # Number of alive cache blocks in each cycle.
system.cpu.accelManager.stream.numTotalAliveCacheBlocks::750-799            0                       # Number of alive cache blocks in each cycle.
system.cpu.accelManager.stream.numTotalAliveCacheBlocks::800-849            0                       # Number of alive cache blocks in each cycle.
system.cpu.accelManager.stream.numTotalAliveCacheBlocks::850-899            0                       # Number of alive cache blocks in each cycle.
system.cpu.accelManager.stream.numTotalAliveCacheBlocks::900-949            0                       # Number of alive cache blocks in each cycle.
system.cpu.accelManager.stream.numTotalAliveCacheBlocks::950-999            0                       # Number of alive cache blocks in each cycle.
system.cpu.accelManager.stream.numTotalAliveCacheBlocks::1000            0                       # Number of alive cache blocks in each cycle.
system.cpu.accelManager.stream.numTotalAliveCacheBlocks::overflows            0                       # Number of alive cache blocks in each cycle.
system.cpu.accelManager.stream.numTotalAliveCacheBlocks::min_value            0                       # Number of alive cache blocks in each cycle.
system.cpu.accelManager.stream.numTotalAliveCacheBlocks::max_value            0                       # Number of alive cache blocks in each cycle.
system.cpu.accelManager.stream.numTotalAliveCacheBlocks::total            0                       # Number of alive cache blocks in each cycle.
system.cpu.accelManager.stream.numTotalAliveElements::samples            0                       # Number of alive stream elements in each cycle.
system.cpu.accelManager.stream.numTotalAliveElements::mean          nan                       # Number of alive stream elements in each cycle.
system.cpu.accelManager.stream.numTotalAliveElements::stdev          nan                       # Number of alive stream elements in each cycle.
system.cpu.accelManager.stream.numTotalAliveElements::underflows            0                       # Number of alive stream elements in each cycle.
system.cpu.accelManager.stream.numTotalAliveElements::0-49            0                       # Number of alive stream elements in each cycle.
system.cpu.accelManager.stream.numTotalAliveElements::50-99            0                       # Number of alive stream elements in each cycle.
system.cpu.accelManager.stream.numTotalAliveElements::100-149            0                       # Number of alive stream elements in each cycle.
system.cpu.accelManager.stream.numTotalAliveElements::150-199            0                       # Number of alive stream elements in each cycle.
system.cpu.accelManager.stream.numTotalAliveElements::200-249            0                       # Number of alive stream elements in each cycle.
system.cpu.accelManager.stream.numTotalAliveElements::250-299            0                       # Number of alive stream elements in each cycle.
system.cpu.accelManager.stream.numTotalAliveElements::300-349            0                       # Number of alive stream elements in each cycle.
system.cpu.accelManager.stream.numTotalAliveElements::350-399            0                       # Number of alive stream elements in each cycle.
system.cpu.accelManager.stream.numTotalAliveElements::400-449            0                       # Number of alive stream elements in each cycle.
system.cpu.accelManager.stream.numTotalAliveElements::450-499            0                       # Number of alive stream elements in each cycle.
system.cpu.accelManager.stream.numTotalAliveElements::500-549            0                       # Number of alive stream elements in each cycle.
system.cpu.accelManager.stream.numTotalAliveElements::550-599            0                       # Number of alive stream elements in each cycle.
system.cpu.accelManager.stream.numTotalAliveElements::600-649            0                       # Number of alive stream elements in each cycle.
system.cpu.accelManager.stream.numTotalAliveElements::650-699            0                       # Number of alive stream elements in each cycle.
system.cpu.accelManager.stream.numTotalAliveElements::700-749            0                       # Number of alive stream elements in each cycle.
system.cpu.accelManager.stream.numTotalAliveElements::750-799            0                       # Number of alive stream elements in each cycle.
system.cpu.accelManager.stream.numTotalAliveElements::800-849            0                       # Number of alive stream elements in each cycle.
system.cpu.accelManager.stream.numTotalAliveElements::850-899            0                       # Number of alive stream elements in each cycle.
system.cpu.accelManager.stream.numTotalAliveElements::900-949            0                       # Number of alive stream elements in each cycle.
system.cpu.accelManager.stream.numTotalAliveElements::950-999            0                       # Number of alive stream elements in each cycle.
system.cpu.accelManager.stream.numTotalAliveElements::1000            0                       # Number of alive stream elements in each cycle.
system.cpu.accelManager.stream.numTotalAliveElements::overflows            0                       # Number of alive stream elements in each cycle.
system.cpu.accelManager.stream.numTotalAliveElements::min_value            0                       # Number of alive stream elements in each cycle.
system.cpu.accelManager.stream.numTotalAliveElements::max_value            0                       # Number of alive stream elements in each cycle.
system.cpu.accelManager.stream.numTotalAliveElements::total            0                       # Number of alive stream elements in each cycle.
system.cpu.accelManager.stream.numTotalAliveMemStreams::samples            0                       # Number of alive memory stream.
system.cpu.accelManager.stream.numTotalAliveMemStreams::mean          nan                       # Number of alive memory stream.
system.cpu.accelManager.stream.numTotalAliveMemStreams::stdev          nan                       # Number of alive memory stream.
system.cpu.accelManager.stream.numTotalAliveMemStreams::underflows            0                       # Number of alive memory stream.
system.cpu.accelManager.stream.numTotalAliveMemStreams::0            0                       # Number of alive memory stream.
system.cpu.accelManager.stream.numTotalAliveMemStreams::1            0                       # Number of alive memory stream.
system.cpu.accelManager.stream.numTotalAliveMemStreams::2            0                       # Number of alive memory stream.
system.cpu.accelManager.stream.numTotalAliveMemStreams::3            0                       # Number of alive memory stream.
system.cpu.accelManager.stream.numTotalAliveMemStreams::4            0                       # Number of alive memory stream.
system.cpu.accelManager.stream.numTotalAliveMemStreams::5            0                       # Number of alive memory stream.
system.cpu.accelManager.stream.numTotalAliveMemStreams::6            0                       # Number of alive memory stream.
system.cpu.accelManager.stream.numTotalAliveMemStreams::7            0                       # Number of alive memory stream.
system.cpu.accelManager.stream.numTotalAliveMemStreams::8            0                       # Number of alive memory stream.
system.cpu.accelManager.stream.numTotalAliveMemStreams::9            0                       # Number of alive memory stream.
system.cpu.accelManager.stream.numTotalAliveMemStreams::10            0                       # Number of alive memory stream.
system.cpu.accelManager.stream.numTotalAliveMemStreams::11            0                       # Number of alive memory stream.
system.cpu.accelManager.stream.numTotalAliveMemStreams::12            0                       # Number of alive memory stream.
system.cpu.accelManager.stream.numTotalAliveMemStreams::13            0                       # Number of alive memory stream.
system.cpu.accelManager.stream.numTotalAliveMemStreams::14            0                       # Number of alive memory stream.
system.cpu.accelManager.stream.numTotalAliveMemStreams::15            0                       # Number of alive memory stream.
system.cpu.accelManager.stream.numTotalAliveMemStreams::overflows            0                       # Number of alive memory stream.
system.cpu.accelManager.stream.numTotalAliveMemStreams::min_value            0                       # Number of alive memory stream.
system.cpu.accelManager.stream.numTotalAliveMemStreams::max_value            0                       # Number of alive memory stream.
system.cpu.accelManager.stream.numTotalAliveMemStreams::total            0                       # Number of alive memory stream.
system.cpu.committedInsts                           0                       # Number of instructions committed
system.cpu.committedOps                             0                       # Number of ops (including micro ops) committed
system.cpu.dtb.l1Accesses                           0                       # L1 TLB accesses
system.cpu.dtb.l1Misses                             0                       # L1 TLB misses
system.cpu.dtb.l2Accesses                           0                       # L2 TLB accesses
system.cpu.dtb.l2Misses                             0                       # L2 TLB misses
system.cpu.dtb.rdAccesses                           0                       # TLB accesses on read requests
system.cpu.dtb.rdMisses                             0                       # TLB misses on read requests
system.cpu.dtb.wrAccesses                           0                       # TLB accesses on write requests
system.cpu.dtb.wrMisses                             0                       # TLB misses on write requests
system.cpu.idle_fraction                            0                       # Percentage of idle cycles
system.cpu.itb.l1Accesses                           0                       # L1 TLB accesses
system.cpu.itb.l1Misses                             0                       # L1 TLB misses
system.cpu.itb.l2Accesses                           0                       # L2 TLB accesses
system.cpu.itb.l2Misses                             0                       # L2 TLB misses
system.cpu.itb.rdAccesses                           0                       # TLB accesses on read requests
system.cpu.itb.rdMisses                             0                       # TLB misses on read requests
system.cpu.itb.wrAccesses                           0                       # TLB accesses on write requests
system.cpu.itb.wrMisses                             0                       # TLB misses on write requests
system.cpu.not_idle_fraction                        1                       # Percentage of non-idle cycles
system.cpu.numCycles                                0                       # number of cpu cycles simulated
system.cpu.numWorkItemsCompleted                    0                       # number of work items this cpu completed
system.cpu.numWorkItemsStarted                      0                       # number of work items this cpu started
system.cpu.num_busy_cycles                          0                       # Number of busy cycles
system.cpu.num_conditional_control_insts            0                       # number of instructions that are conditional controls
system.cpu.num_fp_alu_accesses                      0                       # Number of float alu accesses
system.cpu.num_fp_insts                             0                       # number of float instructions
system.cpu.num_fp_register_reads                    0                       # number of times the floating registers were read
system.cpu.num_fp_register_writes                   0                       # number of times the floating registers were written
system.cpu.num_func_calls                           0                       # number of times a function call or return occured
system.cpu.num_idle_cycles                          0                       # Number of idle cycles
system.cpu.num_int_alu_accesses                     0                       # Number of integer alu accesses
system.cpu.num_int_insts                            0                       # number of integer instructions
system.cpu.num_int_register_reads                   0                       # number of times the integer registers were read
system.cpu.num_int_register_writes                  0                       # number of times the integer registers were written
system.cpu.num_load_insts                           0                       # Number of load instructions
system.cpu.num_mem_refs                             0                       # number of memory refs
system.cpu.num_store_insts                          0                       # Number of store instructions
system.cpu.num_vec_alu_accesses                     0                       # Number of vector alu accesses
system.cpu.num_vec_insts                            0                       # number of vector instructions
system.cpu.num_vec_register_reads                   0                       # number of times the vector registers were read
system.cpu.num_vec_register_writes                  0                       # number of times the vector registers were written
system.cpu.op_class::No_OpClass                     0                       # Class of executed instruction
system.cpu.op_class::IntAlu                         0                       # Class of executed instruction
system.cpu.op_class::IntMult                        0                       # Class of executed instruction
system.cpu.op_class::IntDiv                         0                       # Class of executed instruction
system.cpu.op_class::FloatAdd                       0                       # Class of executed instruction
system.cpu.op_class::FloatCmp                       0                       # Class of executed instruction
system.cpu.op_class::FloatCvt                       0                       # Class of executed instruction
system.cpu.op_class::FloatMult                      0                       # Class of executed instruction
system.cpu.op_class::FloatMultAcc                   0                       # Class of executed instruction
system.cpu.op_class::FloatDiv                       0                       # Class of executed instruction
system.cpu.op_class::FloatMisc                      0                       # Class of executed instruction
system.cpu.op_class::FloatSqrt                      0                       # Class of executed instruction
system.cpu.op_class::SimdAdd                        0                       # Class of executed instruction
system.cpu.op_class::SimdAddAcc                     0                       # Class of executed instruction
system.cpu.op_class::SimdAlu                        0                       # Class of executed instruction
system.cpu.op_class::SimdCmp                        0                       # Class of executed instruction
system.cpu.op_class::SimdCvt                        0                       # Class of executed instruction
system.cpu.op_class::SimdMisc                       0                       # Class of executed instruction
system.cpu.op_class::SimdMult                       0                       # Class of executed instruction
system.cpu.op_class::SimdMultAcc                    0                       # Class of executed instruction
system.cpu.op_class::SimdShift                      0                       # Class of executed instruction
system.cpu.op_class::SimdShiftAcc                   0                       # Class of executed instruction
system.cpu.op_class::SimdDiv                        0                       # Class of executed instruction
system.cpu.op_class::SimdSqrt                       0                       # Class of executed instruction
system.cpu.op_class::SimdFloatAdd                   0                       # Class of executed instruction
system.cpu.op_class::SimdFloatAlu                   0                       # Class of executed instruction
system.cpu.op_class::SimdFloatCmp                   0                       # Class of executed instruction
system.cpu.op_class::SimdFloatCvt                   0                       # Class of executed instruction
system.cpu.op_class::SimdFloatDiv                   0                       # Class of executed instruction
system.cpu.op_class::SimdFloatMisc                  0                       # Class of executed instruction
system.cpu.op_class::SimdFloatMult                  0                       # Class of executed instruction
system.cpu.op_class::SimdFloatMultAcc               0                       # Class of executed instruction
system.cpu.op_class::SimdFloatSqrt                  0                       # Class of executed instruction
system.cpu.op_class::SimdReduceAdd                  0                       # Class of executed instruction
system.cpu.op_class::SimdReduceAlu                  0                       # Class of executed instruction
system.cpu.op_class::SimdReduceCmp                  0                       # Class of executed instruction
system.cpu.op_class::SimdFloatReduceAdd             0                       # Class of executed instruction
system.cpu.op_class::SimdFloatReduceCmp             0                       # Class of executed instruction
system.cpu.op_class::SimdAes                        0                       # Class of executed instruction
system.cpu.op_class::SimdAesMix                     0                       # Class of executed instruction
system.cpu.op_class::SimdSha1Hash                   0                       # Class of executed instruction
system.cpu.op_class::SimdSha1Hash2                  0                       # Class of executed instruction
system.cpu.op_class::SimdSha256Hash                 0                       # Class of executed instruction
system.cpu.op_class::SimdSha256Hash2                0                       # Class of executed instruction
system.cpu.op_class::SimdShaSigma2                  0                       # Class of executed instruction
system.cpu.op_class::SimdShaSigma3                  0                       # Class of executed instruction
system.cpu.op_class::SimdPredAlu                    0                       # Class of executed instruction
system.cpu.op_class::MemRead                        0                       # Class of executed instruction
system.cpu.op_class::MemWrite                       0                       # Class of executed instruction
system.cpu.op_class::FloatMemRead                   0                       # Class of executed instruction
system.cpu.op_class::FloatMemWrite                  0                       # Class of executed instruction
system.cpu.op_class::IprAccess                      0                       # Class of executed instruction
system.cpu.op_class::InstPrefetch                   0                       # Class of executed instruction
system.cpu.op_class::Accelerator                    0                       # Class of executed instruction
system.cpu.op_class::total                          0                       # Class of executed instruction
system.cpu.workload.numSyscalls                     0                       # Number of system calls
system.cpu.workload.snm.indRegionMemFinalBanks::samples            0                       # Distribution of remapped IndRegion banks.
system.cpu.workload.snm.indRegionMemFinalBanks::mean          nan                       # Distribution of remapped IndRegion banks.
system.cpu.workload.snm.indRegionMemFinalBanks::stdev          nan                       # Distribution of remapped IndRegion banks.
system.cpu.workload.snm.indRegionMemFinalBanks::underflows            0                       # Distribution of remapped IndRegion banks.
system.cpu.workload.snm.indRegionMemFinalBanks::0            0                       # Distribution of remapped IndRegion banks.
system.cpu.workload.snm.indRegionMemFinalBanks::1            0                       # Distribution of remapped IndRegion banks.
system.cpu.workload.snm.indRegionMemFinalBanks::2            0                       # Distribution of remapped IndRegion banks.
system.cpu.workload.snm.indRegionMemFinalBanks::3            0                       # Distribution of remapped IndRegion banks.
system.cpu.workload.snm.indRegionMemFinalBanks::overflows            0                       # Distribution of remapped IndRegion banks.
system.cpu.workload.snm.indRegionMemFinalBanks::min_value            0                       # Distribution of remapped IndRegion banks.
system.cpu.workload.snm.indRegionMemFinalBanks::max_value            0                       # Distribution of remapped IndRegion banks.
system.cpu.workload.snm.indRegionMemFinalBanks::total            0                       # Distribution of remapped IndRegion banks.
system.cpu.workload.snm.indRegionMemOptimizedBanks::samples            0                       # Distribution of optimized IndRegion banks.
system.cpu.workload.snm.indRegionMemOptimizedBanks::mean          nan                       # Distribution of optimized IndRegion banks.
system.cpu.workload.snm.indRegionMemOptimizedBanks::stdev          nan                       # Distribution of optimized IndRegion banks.
system.cpu.workload.snm.indRegionMemOptimizedBanks::underflows            0                       # Distribution of optimized IndRegion banks.
system.cpu.workload.snm.indRegionMemOptimizedBanks::0            0                       # Distribution of optimized IndRegion banks.
system.cpu.workload.snm.indRegionMemOptimizedBanks::1            0                       # Distribution of optimized IndRegion banks.
system.cpu.workload.snm.indRegionMemOptimizedBanks::2            0                       # Distribution of optimized IndRegion banks.
system.cpu.workload.snm.indRegionMemOptimizedBanks::3            0                       # Distribution of optimized IndRegion banks.
system.cpu.workload.snm.indRegionMemOptimizedBanks::overflows            0                       # Distribution of optimized IndRegion banks.
system.cpu.workload.snm.indRegionMemOptimizedBanks::min_value            0                       # Distribution of optimized IndRegion banks.
system.cpu.workload.snm.indRegionMemOptimizedBanks::max_value            0                       # Distribution of optimized IndRegion banks.
system.cpu.workload.snm.indRegionMemOptimizedBanks::total            0                       # Distribution of optimized IndRegion banks.
system.cpu.workload.snm.indRegionMemRemappedBanks::samples            0                       # Distribution of remapped IndRegion banks.
system.cpu.workload.snm.indRegionMemRemappedBanks::mean          nan                       # Distribution of remapped IndRegion banks.
system.cpu.workload.snm.indRegionMemRemappedBanks::stdev          nan                       # Distribution of remapped IndRegion banks.
system.cpu.workload.snm.indRegionMemRemappedBanks::underflows            0                       # Distribution of remapped IndRegion banks.
system.cpu.workload.snm.indRegionMemRemappedBanks::0            0                       # Distribution of remapped IndRegion banks.
system.cpu.workload.snm.indRegionMemRemappedBanks::1            0                       # Distribution of remapped IndRegion banks.
system.cpu.workload.snm.indRegionMemRemappedBanks::2            0                       # Distribution of remapped IndRegion banks.
system.cpu.workload.snm.indRegionMemRemappedBanks::3            0                       # Distribution of remapped IndRegion banks.
system.cpu.workload.snm.indRegionMemRemappedBanks::overflows            0                       # Distribution of remapped IndRegion banks.
system.cpu.workload.snm.indRegionMemRemappedBanks::min_value            0                       # Distribution of remapped IndRegion banks.
system.cpu.workload.snm.indRegionMemRemappedBanks::max_value            0                       # Distribution of remapped IndRegion banks.
system.cpu.workload.snm.indRegionMemRemappedBanks::total            0                       # Distribution of remapped IndRegion banks.
system.future_cpus.branchPred.BTBCorrect            0                       # Number of correct BTB predictions (this stat may not work properly.
system.future_cpus.branchPred.BTBHitPct           nan                       # BTB Hit Percentage
system.future_cpus.branchPred.BTBHits               0                       # Number of BTB hits
system.future_cpus.branchPred.BTBLookups            0                       # Number of BTB lookups
system.future_cpus.branchPred.RASInCorrect            0                       # Number of incorrect RAS predictions.
system.future_cpus.branchPred.condIncorrect          172                       # Number of conditional branches incorrect
system.future_cpus.branchPred.condPredicted         6806                       # Number of conditional branches predicted
system.future_cpus.branchPred.indirectHits         6607                       # Number of indirect target hits.
system.future_cpus.branchPred.indirectLookups         6687                       # Number of indirect predictor lookups.
system.future_cpus.branchPred.indirectMisses           80                       # Number of indirect misses.
system.future_cpus.branchPred.lookups            7099                       # Number of BP lookups
system.future_cpus.branchPred.loop_predictor.loopPredictorCorrect         5300                       # Number of times the loop predictor is the provider and the prediction is correct
system.future_cpus.branchPred.loop_predictor.loopPredictorWrong          100                       # Number of times the loop predictor is the provider and the prediction is wrong
system.future_cpus.branchPred.tage.bimodalAltMatchProviderCorrect            3                       # Number of times TAGE Alt Match is the bimodal and it is the provider and the prediction is correct
system.future_cpus.branchPred.tage.bimodalAltMatchProviderWrong            2                       # Number of times TAGE Alt Match is the bimodal and it is the provider and the prediction is wrong
system.future_cpus.branchPred.tage.tageAltMatchProvider::0         1636                       # TAGE provider for alt match
system.future_cpus.branchPred.tage.tageAltMatchProvider::1           45                       # TAGE provider for alt match
system.future_cpus.branchPred.tage.tageAltMatchProvider::2          936                       # TAGE provider for alt match
system.future_cpus.branchPred.tage.tageAltMatchProvider::3           56                       # TAGE provider for alt match
system.future_cpus.branchPred.tage.tageAltMatchProvider::4            0                       # TAGE provider for alt match
system.future_cpus.branchPred.tage.tageAltMatchProvider::5         1218                       # TAGE provider for alt match
system.future_cpus.branchPred.tage.tageAltMatchProvider::6          365                       # TAGE provider for alt match
system.future_cpus.branchPred.tage.tageAltMatchProvider::7           59                       # TAGE provider for alt match
system.future_cpus.branchPred.tage.tageAltMatchProvider::8            7                       # TAGE provider for alt match
system.future_cpus.branchPred.tage.tageAltMatchProvider::9            2                       # TAGE provider for alt match
system.future_cpus.branchPred.tage.tageAltMatchProvider::10            0                       # TAGE provider for alt match
system.future_cpus.branchPred.tage.tageAltMatchProvider::11            0                       # TAGE provider for alt match
system.future_cpus.branchPred.tage.tageAltMatchProvider::12            0                       # TAGE provider for alt match
system.future_cpus.branchPred.tage.tageAltMatchProviderCorrect           68                       # Number of times TAGE Alt Match is the provider and the prediction is correct
system.future_cpus.branchPred.tage.tageAltMatchProviderWouldHaveHit           10                       # Number of times TAGE Longest Match is the provider, the prediction is wrong and Alt Match prediction was correct
system.future_cpus.branchPred.tage.tageAltMatchProviderWrong           17                       # Number of times TAGE Alt Match is the provider and the prediction is wrong
system.future_cpus.branchPred.tage.tageBimodalProviderCorrect          710                       # Number of times there are no hits on the TAGE tables and the bimodal prediction is correct
system.future_cpus.branchPred.tage.tageBimodalProviderWrong           10                       # Number of times there are no hits on the TAGE tables and the bimodal prediction is wrong
system.future_cpus.branchPred.tage.tageLongestMatchProvider::0            0                       # TAGE provider for longest match
system.future_cpus.branchPred.tage.tageLongestMatchProvider::1          281                       # TAGE provider for longest match
system.future_cpus.branchPred.tage.tageLongestMatchProvider::2         1391                       # TAGE provider for longest match
system.future_cpus.branchPred.tage.tageLongestMatchProvider::3            9                       # TAGE provider for longest match
system.future_cpus.branchPred.tage.tageLongestMatchProvider::4           56                       # TAGE provider for longest match
system.future_cpus.branchPred.tage.tageLongestMatchProvider::5          934                       # TAGE provider for longest match
system.future_cpus.branchPred.tage.tageLongestMatchProvider::6         1212                       # TAGE provider for longest match
system.future_cpus.branchPred.tage.tageLongestMatchProvider::7          263                       # TAGE provider for longest match
system.future_cpus.branchPred.tage.tageLongestMatchProvider::8          144                       # TAGE provider for longest match
system.future_cpus.branchPred.tage.tageLongestMatchProvider::9           31                       # TAGE provider for longest match
system.future_cpus.branchPred.tage.tageLongestMatchProvider::10            2                       # TAGE provider for longest match
system.future_cpus.branchPred.tage.tageLongestMatchProvider::11            1                       # TAGE provider for longest match
system.future_cpus.branchPred.tage.tageLongestMatchProvider::12            0                       # TAGE provider for longest match
system.future_cpus.branchPred.tage.tageLongestMatchProviderCorrect         4158                       # Number of times TAGE Longest Match is the provider and the prediction is correct
system.future_cpus.branchPred.tage.tageLongestMatchProviderWouldHaveHit           14                       # Number of times TAGE Alt Match is the provider, the prediction is wrong and Longest Match prediction was correct
system.future_cpus.branchPred.tage.tageLongestMatchProviderWrong           81                       # Number of times TAGE Longest Match is the provider and the prediction is wrong
system.future_cpus.branchPred.usedRAS             124                       # Number of times the RAS was used to get a target.
system.future_cpus.branchPredindirectMispredicted           29                       # Number of mispredicted indirect branches.
system.future_cpus.cc_regfile_reads             33626                       # number of cc regfile reads
system.future_cpus.cc_regfile_writes            24476                       # number of cc regfile writes
system.future_cpus.commit.amos                      0                       # Number of atomic instructions committed
system.future_cpus.commit.branchMispredicts          172                       # The number of times a branch was mispredicted
system.future_cpus.commit.branches               5602                       # Number of branches committed
system.future_cpus.commit.bw_lim_events          6701                       # number cycles where commit BW limit reached
system.future_cpus.commit.commitNonSpecStalls            1                       # The number of times commit has been forced to stall to communicate backwards
system.future_cpus.commit.commitSquashedInsts        21467                       # The number of squashed insts skipped by commit
system.future_cpus.commit.committedInsts       113105                       # Number of instructions committed
system.future_cpus.commit.committedOps         168611                       # Number of ops (including micro ops) committed
system.future_cpus.commit.committed_per_cycle::samples       264012                       # Number of insts commited each cycle
system.future_cpus.commit.committed_per_cycle::mean     0.638649                       # Number of insts commited each cycle
system.future_cpus.commit.committed_per_cycle::stdev     1.520482                       # Number of insts commited each cycle
system.future_cpus.commit.committed_per_cycle::underflows            0      0.00%      0.00% # Number of insts commited each cycle
system.future_cpus.commit.committed_per_cycle::0       196930     74.59%     74.59% # Number of insts commited each cycle
system.future_cpus.commit.committed_per_cycle::1        33273     12.60%     87.19% # Number of insts commited each cycle
system.future_cpus.commit.committed_per_cycle::2         3179      1.20%     88.40% # Number of insts commited each cycle
system.future_cpus.commit.committed_per_cycle::3        21194      8.03%     96.43% # Number of insts commited each cycle
system.future_cpus.commit.committed_per_cycle::4         2289      0.87%     97.29% # Number of insts commited each cycle
system.future_cpus.commit.committed_per_cycle::5          154      0.06%     97.35% # Number of insts commited each cycle
system.future_cpus.commit.committed_per_cycle::6          180      0.07%     97.42% # Number of insts commited each cycle
system.future_cpus.commit.committed_per_cycle::7          112      0.04%     97.46% # Number of insts commited each cycle
system.future_cpus.commit.committed_per_cycle::8         6701      2.54%    100.00% # Number of insts commited each cycle
system.future_cpus.commit.committed_per_cycle::overflows            0      0.00%    100.00% # Number of insts commited each cycle
system.future_cpus.commit.committed_per_cycle::min_value            0                       # Number of insts commited each cycle
system.future_cpus.commit.committed_per_cycle::max_value            8                       # Number of insts commited each cycle
system.future_cpus.commit.committed_per_cycle::total       264012                       # Number of insts commited each cycle
system.future_cpus.commit.fp_insts              90200                       # Number of committed floating point instructions.
system.future_cpus.commit.function_calls          101                       # Number of function calls committed.
system.future_cpus.commit.int_insts            135011                       # Number of committed integer instructions.
system.future_cpus.commit.loads                 65101                       # Number of loads committed
system.future_cpus.commit.membars                   0                       # Number of memory barriers committed
system.future_cpus.commit.op_class_0::No_OpClass        22602     13.40%     13.40% # Class of committed instruction
system.future_cpus.commit.op_class_0::IntAlu        17307     10.26%     23.67% # Class of committed instruction
system.future_cpus.commit.op_class_0::IntMult            0      0.00%     23.67% # Class of committed instruction
system.future_cpus.commit.op_class_0::IntDiv            0      0.00%     23.67% # Class of committed instruction
system.future_cpus.commit.op_class_0::FloatAdd            0      0.00%     23.67% # Class of committed instruction
system.future_cpus.commit.op_class_0::FloatCmp            0      0.00%     23.67% # Class of committed instruction
system.future_cpus.commit.op_class_0::FloatCvt            0      0.00%     23.67% # Class of committed instruction
system.future_cpus.commit.op_class_0::FloatMult            0      0.00%     23.67% # Class of committed instruction
system.future_cpus.commit.op_class_0::FloatMultAcc            0      0.00%     23.67% # Class of committed instruction
system.future_cpus.commit.op_class_0::FloatDiv            0      0.00%     23.67% # Class of committed instruction
system.future_cpus.commit.op_class_0::FloatMisc            0      0.00%     23.67% # Class of committed instruction
system.future_cpus.commit.op_class_0::FloatSqrt            0      0.00%     23.67% # Class of committed instruction
system.future_cpus.commit.op_class_0::SimdAdd            0      0.00%     23.67% # Class of committed instruction
system.future_cpus.commit.op_class_0::SimdAddAcc            0      0.00%     23.67% # Class of committed instruction
system.future_cpus.commit.op_class_0::SimdAlu          200      0.12%     23.79% # Class of committed instruction
system.future_cpus.commit.op_class_0::SimdCmp            0      0.00%     23.79% # Class of committed instruction
system.future_cpus.commit.op_class_0::SimdCvt            0      0.00%     23.79% # Class of committed instruction
system.future_cpus.commit.op_class_0::SimdMisc         3300      1.96%     25.75% # Class of committed instruction
system.future_cpus.commit.op_class_0::SimdMult            0      0.00%     25.75% # Class of committed instruction
system.future_cpus.commit.op_class_0::SimdMultAcc            0      0.00%     25.75% # Class of committed instruction
system.future_cpus.commit.op_class_0::SimdShift            0      0.00%     25.75% # Class of committed instruction
system.future_cpus.commit.op_class_0::SimdShiftAcc            0      0.00%     25.75% # Class of committed instruction
system.future_cpus.commit.op_class_0::SimdDiv            0      0.00%     25.75% # Class of committed instruction
system.future_cpus.commit.op_class_0::SimdSqrt            0      0.00%     25.75% # Class of committed instruction
system.future_cpus.commit.op_class_0::SimdFloatAdd            0      0.00%     25.75% # Class of committed instruction
system.future_cpus.commit.op_class_0::SimdFloatAlu            0      0.00%     25.75% # Class of committed instruction
system.future_cpus.commit.op_class_0::SimdFloatCmp            0      0.00%     25.75% # Class of committed instruction
system.future_cpus.commit.op_class_0::SimdFloatCvt            0      0.00%     25.75% # Class of committed instruction
system.future_cpus.commit.op_class_0::SimdFloatDiv            0      0.00%     25.75% # Class of committed instruction
system.future_cpus.commit.op_class_0::SimdFloatMisc            0      0.00%     25.75% # Class of committed instruction
system.future_cpus.commit.op_class_0::SimdFloatMult        30000     17.79%     43.54% # Class of committed instruction
system.future_cpus.commit.op_class_0::SimdFloatMultAcc            0      0.00%     43.54% # Class of committed instruction
system.future_cpus.commit.op_class_0::SimdFloatSqrt            0      0.00%     43.54% # Class of committed instruction
system.future_cpus.commit.op_class_0::SimdReduceAdd            0      0.00%     43.54% # Class of committed instruction
system.future_cpus.commit.op_class_0::SimdReduceAlu            0      0.00%     43.54% # Class of committed instruction
system.future_cpus.commit.op_class_0::SimdReduceCmp            0      0.00%     43.54% # Class of committed instruction
system.future_cpus.commit.op_class_0::SimdFloatReduceAdd            0      0.00%     43.54% # Class of committed instruction
system.future_cpus.commit.op_class_0::SimdFloatReduceCmp            0      0.00%     43.54% # Class of committed instruction
system.future_cpus.commit.op_class_0::SimdAes            0      0.00%     43.54% # Class of committed instruction
system.future_cpus.commit.op_class_0::SimdAesMix            0      0.00%     43.54% # Class of committed instruction
system.future_cpus.commit.op_class_0::SimdSha1Hash            0      0.00%     43.54% # Class of committed instruction
system.future_cpus.commit.op_class_0::SimdSha1Hash2            0      0.00%     43.54% # Class of committed instruction
system.future_cpus.commit.op_class_0::SimdSha256Hash            0      0.00%     43.54% # Class of committed instruction
system.future_cpus.commit.op_class_0::SimdSha256Hash2            0      0.00%     43.54% # Class of committed instruction
system.future_cpus.commit.op_class_0::SimdShaSigma2            0      0.00%     43.54% # Class of committed instruction
system.future_cpus.commit.op_class_0::SimdShaSigma3            0      0.00%     43.54% # Class of committed instruction
system.future_cpus.commit.op_class_0::SimdPredAlu            0      0.00%     43.54% # Class of committed instruction
system.future_cpus.commit.op_class_0::MemRead         5101      3.03%     46.56% # Class of committed instruction
system.future_cpus.commit.op_class_0::MemWrite          101      0.06%     46.62% # Class of committed instruction
system.future_cpus.commit.op_class_0::FloatMemRead        60000     35.58%     82.21% # Class of committed instruction
system.future_cpus.commit.op_class_0::FloatMemWrite        30000     17.79%    100.00% # Class of committed instruction
system.future_cpus.commit.op_class_0::IprAccess            0      0.00%    100.00% # Class of committed instruction
system.future_cpus.commit.op_class_0::InstPrefetch            0      0.00%    100.00% # Class of committed instruction
system.future_cpus.commit.op_class_0::Accelerator            0      0.00%    100.00% # Class of committed instruction
system.future_cpus.commit.op_class_0::total       168611                       # Class of committed instruction
system.future_cpus.commit.refs                  95202                       # Number of memory references committed
system.future_cpus.commit.swp_count                 0                       # Number of s/w prefetches committed
system.future_cpus.commit.vec_insts                 0                       # Number of committed Vector instructions.
system.future_cpus.committedInsts              113105                       # Number of Instructions Simulated
system.future_cpus.committedOps                168611                       # Number of Ops (including micro ops) Simulated
system.future_cpus.cpi                       2.368419                       # CPI: Cycles Per Instruction
system.future_cpus.cpi_total                 2.368419                       # CPI: Total CPI of All Threads
system.future_cpus.decode.BlockedCycles        231868                       # Number of cycles decode is blocked
system.future_cpus.decode.DecodedInsts         194862                       # Number of instructions handled by decode
system.future_cpus.decode.IdleCycles             8406                       # Number of cycles decode is idle
system.future_cpus.decode.RunCycles             13856                       # Number of cycles decode is running
system.future_cpus.decode.SquashCycles            565                       # Number of cycles decode is squashing
system.future_cpus.decode.UnblockCycles         12256                       # Number of cycles decode is unblocking
system.future_cpus.dtb.l1Accesses              191732                       # L1 TLB accesses
system.future_cpus.dtb.l1Misses                    88                       # L1 TLB misses
system.future_cpus.dtb.l2Accesses                  88                       # L2 TLB accesses
system.future_cpus.dtb.l2Misses                    88                       # L2 TLB misses
system.future_cpus.dtb.rdAccesses              131603                       # TLB accesses on read requests
system.future_cpus.dtb.rdMisses                    70                       # TLB misses on read requests
system.future_cpus.dtb.se_walker.accesses           20                       # PageWalker accesses
system.future_cpus.dtb.se_walker.hits               0                       # PageWalker hits on infly walks
system.future_cpus.dtb.se_walker.waits              0                       # PageWalker waits on available context
system.future_cpus.dtb.wrAccesses               60129                       # TLB accesses on write requests
system.future_cpus.dtb.wrMisses                    18                       # TLB misses on write requests
system.future_cpus.fetch.Branches                7099                       # Number of branches that fetch encountered
system.future_cpus.fetch.CacheLines             26223                       # Number of cache lines fetched
system.future_cpus.fetch.Cycles                239597                       # Number of cycles fetch has run and was not squashing or blocked
system.future_cpus.fetch.IcacheSquashes            82                       # Number of outstanding Icache misses that were squashed
system.future_cpus.fetch.Insts                 144111                       # Number of instructions fetch has processed
system.future_cpus.fetch.SquashCycles            1130                       # Number of cycles fetch has spent squashing
system.future_cpus.fetch.branchRate          0.026501                       # Number of branch fetches per cycle
system.future_cpus.fetch.icacheStallCycles        26789                       # Number of cycles fetch is stalled on an Icache miss
system.future_cpus.fetch.predictedBranches         6731                       # Number of branches that fetch has predicted taken
system.future_cpus.fetch.rate                0.537968                       # Number of inst fetches per cycle
system.future_cpus.fetch.rateDist::samples       266951                       # Number of instructions fetched each cycle (Total)
system.future_cpus.fetch.rateDist::mean      0.806620                       # Number of instructions fetched each cycle (Total)
system.future_cpus.fetch.rateDist::stdev     2.173042                       # Number of instructions fetched each cycle (Total)
system.future_cpus.fetch.rateDist::underflows            0      0.00%      0.00% # Number of instructions fetched each cycle (Total)
system.future_cpus.fetch.rateDist::0           226858     84.98%     84.98% # Number of instructions fetched each cycle (Total)
system.future_cpus.fetch.rateDist::1              156      0.06%     85.04% # Number of instructions fetched each cycle (Total)
system.future_cpus.fetch.rateDist::2             6355      2.38%     87.42% # Number of instructions fetched each cycle (Total)
system.future_cpus.fetch.rateDist::3            12223      4.58%     92.00% # Number of instructions fetched each cycle (Total)
system.future_cpus.fetch.rateDist::4               17      0.01%     92.01% # Number of instructions fetched each cycle (Total)
system.future_cpus.fetch.rateDist::5              912      0.34%     92.35% # Number of instructions fetched each cycle (Total)
system.future_cpus.fetch.rateDist::6             1103      0.41%     92.76% # Number of instructions fetched each cycle (Total)
system.future_cpus.fetch.rateDist::7               69      0.03%     92.79% # Number of instructions fetched each cycle (Total)
system.future_cpus.fetch.rateDist::8            19258      7.21%    100.00% # Number of instructions fetched each cycle (Total)
system.future_cpus.fetch.rateDist::overflows            0      0.00%    100.00% # Number of instructions fetched each cycle (Total)
system.future_cpus.fetch.rateDist::min_value            0                       # Number of instructions fetched each cycle (Total)
system.future_cpus.fetch.rateDist::max_value            8                       # Number of instructions fetched each cycle (Total)
system.future_cpus.fetch.rateDist::total       266951                       # Number of instructions fetched each cycle (Total)
system.future_cpus.fp_regfile_reads            745538                       # number of floating regfile reads
system.future_cpus.fp_regfile_writes           771799                       # number of floating regfile writes
system.future_cpus.idleCycles                     929                       # Total number of cycles that the CPU has spent unscheduled due to idling
system.future_cpus.iew.branchMispredicts          180                       # Number of branch mispredicts detected at execute
system.future_cpus.iew.exec_branches             6209                       # Number of branches executed
system.future_cpus.iew.exec_nop                     0                       # number of nop insts executed
system.future_cpus.iew.exec_rate             0.675892                       # Inst execution rate
system.future_cpus.iew.exec_refs               102013                       # number of memory reference insts executed
system.future_cpus.iew.exec_stores              31160                       # Number of stores executed
system.future_cpus.iew.exec_swp                     0                       # number of swp insts executed
system.future_cpus.iew.iewBlockCycles            2374                       # Number of cycles IEW is blocking
system.future_cpus.iew.iewDispLoadInsts         73892                       # Number of dispatched load instructions
system.future_cpus.iew.iewDispNonSpecInsts            1                       # Number of dispatched non-speculative instructions
system.future_cpus.iew.iewDispSquashedInsts            0                       # Number of squashed instructions skipped by dispatch
system.future_cpus.iew.iewDispStoreInsts        33959                       # Number of dispatched store instructions
system.future_cpus.iew.iewDispatchedInsts       190118                       # Number of instructions dispatched to IQ
system.future_cpus.iew.iewExecLoadInsts         70853                       # Number of load instructions executed
system.future_cpus.iew.iewExecSquashedInsts          226                       # Number of squashed instructions skipped in execute
system.future_cpus.iew.iewExecutedInsts        181058                       # Number of executed instructions
system.future_cpus.iew.iewIQFullEvents              0                       # Number of times the IQ has become full, causing a stall
system.future_cpus.iew.iewIdleCycles                0                       # Number of cycles IEW is idle
system.future_cpus.iew.iewLSQFullEvents          7266                       # Number of times the LSQ has become full, causing a stall
system.future_cpus.iew.iewSquashCycles            565                       # Number of cycles IEW is squashing
system.future_cpus.iew.iewUnblockCycles          7274                       # Number of cycles IEW is unblocking
system.future_cpus.iew.lsq.blockedLoads             0                       # Number of blocked loads due to partial load-store forwarding
system.future_cpus.iew.lsq.cacheBlocked             0                       # Number of times an access to memory failed due to the cache being blocked
system.future_cpus.iew.lsq.forwLoads                1                       # Number of loads that had data forwarded from stores
system.future_cpus.iew.lsq.ignoredResponses            0                       # Number of memory responses ignored because the instruction is squashed
system.future_cpus.iew.lsq.invAddrLoads             0                       # Number of loads ignored due to an invalid address
system.future_cpus.iew.lsq.invAddrSwpfs             0                       # Number of software prefetches ignored due to an invalid address
system.future_cpus.iew.lsq.memOrderViolation            0                       # Number of memory ordering violations
system.future_cpus.iew.lsq.rescheduledLoads            0                       # Number of loads that were rescheduled
system.future_cpus.iew.lsq.squashedLoads         8791                       # Number of loads squashed
system.future_cpus.iew.lsq.squashedStores         3858                       # Number of stores squashed
system.future_cpus.iew.memOrderViolationEvents            0                       # Number of memory order violations
system.future_cpus.iew.predictedNotTakenIncorrect           75                       # Number of branches that were predicted not taken incorrectly
system.future_cpus.iew.predictedTakenIncorrect          105                       # Number of branches that were predicted taken incorrectly
system.future_cpus.iew.wb_consumers            874018                       # num instructions consuming a value
system.future_cpus.iew.wb_count                178300                       # cumulative count of insts written-back
system.future_cpus.iew.wb_fanout             0.153763                       # average fanout of values written-back
system.future_cpus.iew.wb_producers            134392                       # num instructions producing a value
system.future_cpus.iew.wb_rate               0.665597                       # insts written-back per cycle
system.future_cpus.iew.wb_sent                 180843                       # cumulative count of insts sent to commit
system.future_cpus.int_regfile_reads           245209                       # number of integer regfile reads
system.future_cpus.int_regfile_writes           43167                       # number of integer regfile writes
system.future_cpus.ipc                       0.422223                       # IPC: Instructions Per Cycle
system.future_cpus.ipc_total                 0.422223                       # IPC: Total IPC of All Threads
system.future_cpus.iq.FU_type_0::No_OpClass        25136     13.86%     13.86% # Type of FU issued
system.future_cpus.iq.FU_type_0::IntAlu         19159     10.57%     24.43% # Type of FU issued
system.future_cpus.iq.FU_type_0::IntMult            0      0.00%     24.43% # Type of FU issued
system.future_cpus.iq.FU_type_0::IntDiv             0      0.00%     24.43% # Type of FU issued
system.future_cpus.iq.FU_type_0::FloatAdd            0      0.00%     24.43% # Type of FU issued
system.future_cpus.iq.FU_type_0::FloatCmp            0      0.00%     24.43% # Type of FU issued
system.future_cpus.iq.FU_type_0::FloatCvt            0      0.00%     24.43% # Type of FU issued
system.future_cpus.iq.FU_type_0::FloatMult            0      0.00%     24.43% # Type of FU issued
system.future_cpus.iq.FU_type_0::FloatMultAcc            0      0.00%     24.43% # Type of FU issued
system.future_cpus.iq.FU_type_0::FloatDiv            0      0.00%     24.43% # Type of FU issued
system.future_cpus.iq.FU_type_0::FloatMisc            0      0.00%     24.43% # Type of FU issued
system.future_cpus.iq.FU_type_0::FloatSqrt            0      0.00%     24.43% # Type of FU issued
system.future_cpus.iq.FU_type_0::SimdAdd            0      0.00%     24.43% # Type of FU issued
system.future_cpus.iq.FU_type_0::SimdAddAcc            0      0.00%     24.43% # Type of FU issued
system.future_cpus.iq.FU_type_0::SimdAlu          212      0.12%     24.55% # Type of FU issued
system.future_cpus.iq.FU_type_0::SimdCmp            0      0.00%     24.55% # Type of FU issued
system.future_cpus.iq.FU_type_0::SimdCvt            0      0.00%     24.55% # Type of FU issued
system.future_cpus.iq.FU_type_0::SimdMisc         3653      2.01%     26.56% # Type of FU issued
system.future_cpus.iq.FU_type_0::SimdMult            0      0.00%     26.56% # Type of FU issued
system.future_cpus.iq.FU_type_0::SimdMultAcc            0      0.00%     26.56% # Type of FU issued
system.future_cpus.iq.FU_type_0::SimdShift            0      0.00%     26.56% # Type of FU issued
system.future_cpus.iq.FU_type_0::SimdShiftAcc            0      0.00%     26.56% # Type of FU issued
system.future_cpus.iq.FU_type_0::SimdDiv            0      0.00%     26.56% # Type of FU issued
system.future_cpus.iq.FU_type_0::SimdSqrt            0      0.00%     26.56% # Type of FU issued
system.future_cpus.iq.FU_type_0::SimdFloatAdd            0      0.00%     26.56% # Type of FU issued
system.future_cpus.iq.FU_type_0::SimdFloatAlu            0      0.00%     26.56% # Type of FU issued
system.future_cpus.iq.FU_type_0::SimdFloatCmp            0      0.00%     26.56% # Type of FU issued
system.future_cpus.iq.FU_type_0::SimdFloatCvt            0      0.00%     26.56% # Type of FU issued
system.future_cpus.iq.FU_type_0::SimdFloatDiv            0      0.00%     26.56% # Type of FU issued
system.future_cpus.iq.FU_type_0::SimdFloatMisc            0      0.00%     26.56% # Type of FU issued
system.future_cpus.iq.FU_type_0::SimdFloatMult        31046     17.12%     43.69% # Type of FU issued
system.future_cpus.iq.FU_type_0::SimdFloatMultAcc            0      0.00%     43.69% # Type of FU issued
system.future_cpus.iq.FU_type_0::SimdFloatSqrt            0      0.00%     43.69% # Type of FU issued
system.future_cpus.iq.FU_type_0::SimdReduceAdd            0      0.00%     43.69% # Type of FU issued
system.future_cpus.iq.FU_type_0::SimdReduceAlu            0      0.00%     43.69% # Type of FU issued
system.future_cpus.iq.FU_type_0::SimdReduceCmp            0      0.00%     43.69% # Type of FU issued
system.future_cpus.iq.FU_type_0::SimdFloatReduceAdd            0      0.00%     43.69% # Type of FU issued
system.future_cpus.iq.FU_type_0::SimdFloatReduceCmp            0      0.00%     43.69% # Type of FU issued
system.future_cpus.iq.FU_type_0::SimdAes            0      0.00%     43.69% # Type of FU issued
system.future_cpus.iq.FU_type_0::SimdAesMix            0      0.00%     43.69% # Type of FU issued
system.future_cpus.iq.FU_type_0::SimdSha1Hash            0      0.00%     43.69% # Type of FU issued
system.future_cpus.iq.FU_type_0::SimdSha1Hash2            0      0.00%     43.69% # Type of FU issued
system.future_cpus.iq.FU_type_0::SimdSha256Hash            0      0.00%     43.69% # Type of FU issued
system.future_cpus.iq.FU_type_0::SimdSha256Hash2            0      0.00%     43.69% # Type of FU issued
system.future_cpus.iq.FU_type_0::SimdShaSigma2            0      0.00%     43.69% # Type of FU issued
system.future_cpus.iq.FU_type_0::SimdShaSigma3            0      0.00%     43.69% # Type of FU issued
system.future_cpus.iq.FU_type_0::SimdPredAlu            0      0.00%     43.69% # Type of FU issued
system.future_cpus.iq.FU_type_0::MemRead         5773      3.18%     46.87% # Type of FU issued
system.future_cpus.iq.FU_type_0::MemWrite          122      0.07%     46.94% # Type of FU issued
system.future_cpus.iq.FU_type_0::FloatMemRead        65147     35.93%     82.87% # Type of FU issued
system.future_cpus.iq.FU_type_0::FloatMemWrite        31051     17.13%    100.00% # Type of FU issued
system.future_cpus.iq.FU_type_0::IprAccess            0      0.00%    100.00% # Type of FU issued
system.future_cpus.iq.FU_type_0::InstPrefetch            0      0.00%    100.00% # Type of FU issued
system.future_cpus.iq.FU_type_0::Accelerator            0      0.00%    100.00% # Type of FU issued
system.future_cpus.iq.FU_type_0::total         181299                       # Type of FU issued
system.future_cpus.iq.fp_alu_accesses          109596                       # Number of floating point alu accesses
system.future_cpus.iq.fp_inst_queue_reads       206217                       # Number of floating instruction queue reads
system.future_cpus.iq.fp_inst_queue_wakeup_accesses        93982                       # Number of floating instruction queue wakeup accesses
system.future_cpus.iq.fp_inst_queue_writes       114522                       # Number of floating instruction queue writes
system.future_cpus.iq.fu_busy_cnt               15210                       # FU busy when requested
system.future_cpus.iq.fu_busy_rate           0.083895                       # FU busy rate (busy events/executed inst)
system.future_cpus.iq.fu_full::No_OpClass            0      0.00%      0.00% # attempts to use FU when none available
system.future_cpus.iq.fu_full::IntAlu               0      0.00%      0.00% # attempts to use FU when none available
system.future_cpus.iq.fu_full::IntMult              0      0.00%      0.00% # attempts to use FU when none available
system.future_cpus.iq.fu_full::IntDiv               0      0.00%      0.00% # attempts to use FU when none available
system.future_cpus.iq.fu_full::FloatAdd             0      0.00%      0.00% # attempts to use FU when none available
system.future_cpus.iq.fu_full::FloatCmp             0      0.00%      0.00% # attempts to use FU when none available
system.future_cpus.iq.fu_full::FloatCvt             0      0.00%      0.00% # attempts to use FU when none available
system.future_cpus.iq.fu_full::FloatMult            0      0.00%      0.00% # attempts to use FU when none available
system.future_cpus.iq.fu_full::FloatMultAcc            0      0.00%      0.00% # attempts to use FU when none available
system.future_cpus.iq.fu_full::FloatDiv             0      0.00%      0.00% # attempts to use FU when none available
system.future_cpus.iq.fu_full::FloatMisc            0      0.00%      0.00% # attempts to use FU when none available
system.future_cpus.iq.fu_full::FloatSqrt            0      0.00%      0.00% # attempts to use FU when none available
system.future_cpus.iq.fu_full::SimdAdd              0      0.00%      0.00% # attempts to use FU when none available
system.future_cpus.iq.fu_full::SimdAddAcc            0      0.00%      0.00% # attempts to use FU when none available
system.future_cpus.iq.fu_full::SimdAlu              0      0.00%      0.00% # attempts to use FU when none available
system.future_cpus.iq.fu_full::SimdCmp              0      0.00%      0.00% # attempts to use FU when none available
system.future_cpus.iq.fu_full::SimdCvt              0      0.00%      0.00% # attempts to use FU when none available
[...]
system.mem_ctrls3.bytesWritten                      0                       # Total number of bytes written to DRAM
system.mem_ctrls3.bytesReadSys                  16960                       # Total read bytes from the system interface side
system.mem_ctrls3.bytesWrittenSys                   0                       # Total written bytes from the system interface side
system.mem_ctrls3.avgRdBW                      126.62                       # Average DRAM read bandwidth in MiByte/s
system.mem_ctrls3.avgWrBW                        0.00                       # Average achieved write bandwidth in MiByte/s
system.mem_ctrls3.avgRdBWSys                   126.62                       # Average system read bandwidth in MiByte/s
system.mem_ctrls3.avgWrBWSys                     0.00                       # Average system write bandwidth in MiByte/s
system.mem_ctrls3.peakBW                     12800.00                       # Theoretical peak bandwidth in MiByte/s
system.mem_ctrls3.busUtil                        0.99                       # Data bus utilization in percentage
system.mem_ctrls3.busUtilRead                    0.99                       # Data bus utilization in percentage for reads
system.mem_ctrls3.busUtilWrite                   0.00                       # Data bus utilization in percentage for writes
system.mem_ctrls3.totGap                    134369000                       # Total gap between requests
system.mem_ctrls3.avgGap                    507052.83                       # Average gap between requests
system.mem_ctrls3.masterReadBytes::.ruby.dir_cntrl3        16960                       # Per-master bytes read from memory
system.mem_ctrls3.masterReadRate::.ruby.dir_cntrl3 126623861.430491253734                       # Per-master bytes read from memory rate (Bytes/sec)
system.mem_ctrls3.masterReadAccesses::.ruby.dir_cntrl3          265                       # Per-master read serviced memory accesses
system.mem_ctrls3.masterReadTotalLat::.ruby.dir_cntrl3      6472997                       # Per-master read total memory access latency
system.mem_ctrls3.masterReadAvgLat::.ruby.dir_cntrl3     24426.40                       # Per-master read average memory access latency
system.mem_ctrls3.pageHitRate                   87.17                       # Row buffer hit rate, read and write combined
system.mem_ctrls3.power_state.pwrStateResidencyTicks::UNDEFINED    710958500                       # Cumulative time (in ticks) in various power states
system.mem_ctrls3.rank0.actEnergy               35700                       # Energy for activate commands per rank (pJ)
system.mem_ctrls3.rank0.preEnergy               18975                       # Energy for precharge commands per rank (pJ)
system.mem_ctrls3.rank0.readEnergy             142800                       # Energy for read commands per rank (pJ)
system.mem_ctrls3.rank0.writeEnergy                 0                       # Energy for write commands per rank (pJ)
system.mem_ctrls3.rank0.refreshEnergy    10448880.000000                       # Energy for refresh commands per rank (pJ)
system.mem_ctrls3.rank0.actBackEnergy        10555260                       # Energy for active background per rank (pJ)
system.mem_ctrls3.rank0.preBackEnergy        42487680                       # Energy for precharge background per rank (pJ)
system.mem_ctrls3.rank0.actPowerDownEnergy            0                       # Energy for active power-down per rank (pJ)
system.mem_ctrls3.rank0.prePowerDownEnergy            0                       # Energy for precharge power-down per rank (pJ)
system.mem_ctrls3.rank0.selfRefreshEnergy            0                       # Energy for self refresh per rank (pJ)
system.mem_ctrls3.rank0.totalEnergy          63689295                       # Total energy per rank (pJ)
system.mem_ctrls3.rank0.averagePower       475.506159                       # Core power per rank (mW)
system.mem_ctrls3.rank0.totalIdleTime               0                       # Total Idle time Per DRAM Rank
system.mem_ctrls3.rank0.memoryStateTime::IDLE    110984253                       # Time in different power states
system.mem_ctrls3.rank0.memoryStateTime::REF      4420000                       # Time in different power states
system.mem_ctrls3.rank0.memoryStateTime::SREF            0                       # Time in different power states
system.mem_ctrls3.rank0.memoryStateTime::PRE_PDN            0                       # Time in different power states
system.mem_ctrls3.rank0.memoryStateTime::ACT     19003247                       # Time in different power states
system.mem_ctrls3.rank0.memoryStateTime::ACT_PDN            0                       # Time in different power states
system.mem_ctrls3.rank1.actEnergy              214200                       # Energy for activate commands per rank (pJ)
system.mem_ctrls3.rank1.preEnergy              110055                       # Energy for precharge commands per rank (pJ)
system.mem_ctrls3.rank1.readEnergy            1756440                       # Energy for read commands per rank (pJ)
system.mem_ctrls3.rank1.writeEnergy                 0                       # Energy for write commands per rank (pJ)
system.mem_ctrls3.rank1.refreshEnergy    10448880.000000                       # Energy for refresh commands per rank (pJ)
system.mem_ctrls3.rank1.actBackEnergy        58391940                       # Energy for active background per rank (pJ)
system.mem_ctrls3.rank1.preBackEnergy         2427840                       # Energy for precharge background per rank (pJ)
system.mem_ctrls3.rank1.actPowerDownEnergy            0                       # Energy for active power-down per rank (pJ)
system.mem_ctrls3.rank1.prePowerDownEnergy            0                       # Energy for precharge power-down per rank (pJ)
system.mem_ctrls3.rank1.selfRefreshEnergy            0                       # Energy for self refresh per rank (pJ)
system.mem_ctrls3.rank1.totalEnergy          73349355                       # Total energy per rank (pJ)
system.mem_ctrls3.rank1.averagePower       547.628453                       # Core power per rank (mW)
system.mem_ctrls3.rank1.totalIdleTime               0                       # Total Idle time Per DRAM Rank
system.mem_ctrls3.rank1.memoryStateTime::IDLE      5850013                       # Time in different power states
system.mem_ctrls3.rank1.memoryStateTime::REF      4420000                       # Time in different power states
system.mem_ctrls3.rank1.memoryStateTime::SREF            0                       # Time in different power states
system.mem_ctrls3.rank1.memoryStateTime::PRE_PDN            0                       # Time in different power states
system.mem_ctrls3.rank1.memoryStateTime::ACT    124105986                       # Time in different power states
system.mem_ctrls3.rank1.memoryStateTime::ACT_PDN            0                       # Time in different power states
system.ruby.clk_domain.clock                      500                       # Clock period in ticks
system.ruby.dir_cntrl0.power_state.pwrStateResidencyTicks::UNDEFINED    710958500                       # Cumulative time (in ticks) in various power states
system.ruby.dir_cntrl1.power_state.pwrStateResidencyTicks::UNDEFINED    710958500                       # Cumulative time (in ticks) in various power states
system.ruby.dir_cntrl2.power_state.pwrStateResidencyTicks::UNDEFINED    710958500                       # Cumulative time (in ticks) in various power states
system.ruby.dir_cntrl3.power_state.pwrStateResidencyTicks::UNDEFINED    710958500                       # Cumulative time (in ticks) in various power states
system.ruby.l0_cntrl0.power_state.pwrStateResidencyTicks::UNDEFINED    710958500                       # Cumulative time (in ticks) in various power states
system.ruby.l0_cntrl0.sequencer.power_state.pwrStateResidencyTicks::UNDEFINED    710958500                       # Cumulative time (in ticks) in various power states
system.ruby.l1_cntrl0.power_state.pwrStateResidencyTicks::UNDEFINED    710958500                       # Cumulative time (in ticks) in various power states
system.ruby.l2_cntrl0.power_state.pwrStateResidencyTicks::UNDEFINED    710958500                       # Cumulative time (in ticks) in various power states
system.ruby.memctrl_clk_domain.clock             1500                       # Clock period in ticks
system.ruby.network.ext_links0.credit_links0.power_state.pwrStateResidencyTicks::UNDEFINED    710958500                       # Cumulative time (in ticks) in various power states
system.ruby.network.ext_links0.credit_links1.power_state.pwrStateResidencyTicks::UNDEFINED    710958500                       # Cumulative time (in ticks) in various power states
system.ruby.network.ext_links0.network_links0.power_state.pwrStateResidencyTicks::UNDEFINED    710958500                       # Cumulative time (in ticks) in various power states
system.ruby.network.ext_links0.network_links1.power_state.pwrStateResidencyTicks::UNDEFINED    710958500                       # Cumulative time (in ticks) in various power states
system.ruby.network.ext_links1.credit_links0.power_state.pwrStateResidencyTicks::UNDEFINED    710958500                       # Cumulative time (in ticks) in various power states
system.ruby.network.ext_links1.credit_links1.power_state.pwrStateResidencyTicks::UNDEFINED    710958500                       # Cumulative time (in ticks) in various power states
system.ruby.network.ext_links1.network_links0.power_state.pwrStateResidencyTicks::UNDEFINED    710958500                       # Cumulative time (in ticks) in various power states
system.ruby.network.ext_links1.network_links1.power_state.pwrStateResidencyTicks::UNDEFINED    710958500                       # Cumulative time (in ticks) in various power states
system.ruby.network.ext_links2.credit_links0.power_state.pwrStateResidencyTicks::UNDEFINED    710958500                       # Cumulative time (in ticks) in various power states
system.ruby.network.ext_links2.credit_links1.power_state.pwrStateResidencyTicks::UNDEFINED    710958500                       # Cumulative time (in ticks) in various power states
system.ruby.network.ext_links2.network_links0.power_state.pwrStateResidencyTicks::UNDEFINED    710958500                       # Cumulative time (in ticks) in various power states
system.ruby.network.ext_links2.network_links1.power_state.pwrStateResidencyTicks::UNDEFINED    710958500                       # Cumulative time (in ticks) in various power states
system.ruby.network.ext_links3.credit_links0.power_state.pwrStateResidencyTicks::UNDEFINED    710958500                       # Cumulative time (in ticks) in various power states
system.ruby.network.ext_links3.credit_links1.power_state.pwrStateResidencyTicks::UNDEFINED    710958500                       # Cumulative time (in ticks) in various power states
system.ruby.network.ext_links3.network_links0.power_state.pwrStateResidencyTicks::UNDEFINED    710958500                       # Cumulative time (in ticks) in various power states
system.ruby.network.ext_links3.network_links1.power_state.pwrStateResidencyTicks::UNDEFINED    710958500                       # Cumulative time (in ticks) in various power states
system.ruby.network.ext_links4.credit_links0.power_state.pwrStateResidencyTicks::UNDEFINED    710958500                       # Cumulative time (in ticks) in various power states
system.ruby.network.ext_links4.credit_links1.power_state.pwrStateResidencyTicks::UNDEFINED    710958500                       # Cumulative time (in ticks) in various power states
system.ruby.network.ext_links4.network_links0.power_state.pwrStateResidencyTicks::UNDEFINED    710958500                       # Cumulative time (in ticks) in various power states
system.ruby.network.ext_links4.network_links1.power_state.pwrStateResidencyTicks::UNDEFINED    710958500                       # Cumulative time (in ticks) in various power states
system.ruby.network.ext_links5.credit_links0.power_state.pwrStateResidencyTicks::UNDEFINED    710958500                       # Cumulative time (in ticks) in various power states
system.ruby.network.ext_links5.credit_links1.power_state.pwrStateResidencyTicks::UNDEFINED    710958500                       # Cumulative time (in ticks) in various power states
system.ruby.network.ext_links5.network_links0.power_state.pwrStateResidencyTicks::UNDEFINED    710958500                       # Cumulative time (in ticks) in various power states
system.ruby.network.ext_links5.network_links1.power_state.pwrStateResidencyTicks::UNDEFINED    710958500                       # Cumulative time (in ticks) in various power states
system.ruby.network.ext_links6.credit_links0.power_state.pwrStateResidencyTicks::UNDEFINED    710958500                       # Cumulative time (in ticks) in various power states
system.ruby.network.ext_links6.credit_links1.power_state.pwrStateResidencyTicks::UNDEFINED    710958500                       # Cumulative time (in ticks) in various power states
system.ruby.network.ext_links6.network_links0.power_state.pwrStateResidencyTicks::UNDEFINED    710958500                       # Cumulative time (in ticks) in various power states
system.ruby.network.ext_links6.network_links1.power_state.pwrStateResidencyTicks::UNDEFINED    710958500                       # Cumulative time (in ticks) in various power states
system.ruby.network.netifs0.power_state.pwrStateResidencyTicks::UNDEFINED    710958500                       # Cumulative time (in ticks) in various power states
system.ruby.network.netifs1.power_state.pwrStateResidencyTicks::UNDEFINED    710958500                       # Cumulative time (in ticks) in various power states
system.ruby.network.netifs2.power_state.pwrStateResidencyTicks::UNDEFINED    710958500                       # Cumulative time (in ticks) in various power states
system.ruby.network.netifs3.power_state.pwrStateResidencyTicks::UNDEFINED    710958500                       # Cumulative time (in ticks) in various power states
system.ruby.network.netifs4.power_state.pwrStateResidencyTicks::UNDEFINED    710958500                       # Cumulative time (in ticks) in various power states
system.ruby.network.netifs5.power_state.pwrStateResidencyTicks::UNDEFINED    710958500                       # Cumulative time (in ticks) in various power states
system.ruby.network.netifs6.power_state.pwrStateResidencyTicks::UNDEFINED    710958500                       # Cumulative time (in ticks) in various power states
system.ruby.network.power_state.pwrStateResidencyTicks::UNDEFINED    710958500                       # Cumulative time (in ticks) in various power states
system.ruby.network.routers.power_state.pwrStateResidencyTicks::UNDEFINED    710958500                       # Cumulative time (in ticks) in various power states
system.ruby.phys_mem.bytes_read::.cpu.inst      5017288                       # Number of bytes read from this memory
system.ruby.phys_mem.bytes_read::.cpu.data       764356                       # Number of bytes read from this memory
system.ruby.phys_mem.bytes_read::.future_cpus.inst      1678592                       # Number of bytes read from this memory
system.ruby.phys_mem.bytes_read::.future_cpus.data      4210972                       # Number of bytes read from this memory
system.ruby.phys_mem.bytes_read::total       11671208                       # Number of bytes read from this memory
system.ruby.phys_mem.bytes_inst_read::.cpu.inst      5017288                       # Number of instructions bytes read from this memory
system.ruby.phys_mem.bytes_inst_read::.future_cpus.inst      1678592                       # Number of instructions bytes read from this memory
system.ruby.phys_mem.bytes_inst_read::total      6695880                       # Number of instructions bytes read from this memory
system.ruby.phys_mem.bytes_written::.cpu.data       528391                       # Number of bytes written to this memory
system.ruby.phys_mem.bytes_written::.future_cpus.data      1920816                       # Number of bytes written to this memory
system.ruby.phys_mem.bytes_written::total      2449207                       # Number of bytes written to this memory
system.ruby.phys_mem.num_reads::.cpu.inst       627161                       # Number of read requests responded to by this memory
system.ruby.phys_mem.num_reads::.cpu.data       126849                       # Number of read requests responded to by this memory
system.ruby.phys_mem.num_reads::.future_cpus.inst        26228                       # Number of read requests responded to by this memory
system.ruby.phys_mem.num_reads::.future_cpus.data       131550                       # Number of read requests responded to by this memory
system.ruby.phys_mem.num_reads::total          911788                       # Number of read requests responded to by this memory
system.ruby.phys_mem.num_writes::.cpu.data        77183                       # Number of write requests responded to by this memory
system.ruby.phys_mem.num_writes::.future_cpus.data        58098                       # Number of write requests responded to by this memory
system.ruby.phys_mem.num_writes::total         135281                       # Number of write requests responded to by this memory
system.ruby.phys_mem.bw_read::.cpu.inst   37459220547                       # Total read bandwidth from this memory (bytes/s)
system.ruby.phys_mem.bw_read::.cpu.data    5706704495                       # Total read bandwidth from this memory (bytes/s)
system.ruby.phys_mem.bw_read::.future_cpus.inst  12532417500                       # Total read bandwidth from this memory (bytes/s)
system.ruby.phys_mem.bw_read::.future_cpus.data  31439241451                       # Total read bandwidth from this memory (bytes/s)
system.ruby.phys_mem.bw_read::total       87137583993                       # Total read bandwidth from this memory (bytes/s)
system.ruby.phys_mem.bw_inst_read::.cpu.inst  37459220547                       # Instruction read bandwidth from this memory (bytes/s)
system.ruby.phys_mem.bw_inst_read::.future_cpus.inst  12532417500                       # Instruction read bandwidth from this memory (bytes/s)
system.ruby.phys_mem.bw_inst_read::total  49991638047                       # Instruction read bandwidth from this memory (bytes/s)
system.ruby.phys_mem.bw_write::.cpu.data   3944982828                       # Write bandwidth from this memory (bytes/s)
system.ruby.phys_mem.bw_write::.future_cpus.data  14340869046                       # Write bandwidth from this memory (bytes/s)
system.ruby.phys_mem.bw_write::total      18285851874                       # Write bandwidth from this memory (bytes/s)
system.ruby.phys_mem.bw_total::.cpu.inst  37459220547                       # Total bandwidth to/from this memory (bytes/s)
system.ruby.phys_mem.bw_total::.cpu.data   9651687323                       # Total bandwidth to/from this memory (bytes/s)
system.ruby.phys_mem.bw_total::.future_cpus.inst  12532417500                       # Total bandwidth to/from this memory (bytes/s)
system.ruby.phys_mem.bw_total::.future_cpus.data  45780110497                       # Total bandwidth to/from this memory (bytes/s)
system.ruby.phys_mem.bw_total::total     105423435867                       # Total bandwidth to/from this memory (bytes/s)
system.ruby.phys_mem.power_state.pwrStateResidencyTicks::UNDEFINED    710958500                       # Cumulative time (in ticks) in various power states
system.ruby.power_state.pwrStateResidencyTicks::UNDEFINED    710958500                       # Cumulative time (in ticks) in various power states
system.sys_port_proxy.power_state.pwrStateResidencyTicks::UNDEFINED    710958500                       # Cumulative time (in ticks) in various power states
system.voltage_domain.voltage                       1                       # Voltage in Volts

---------- End Simulation Statistics   ----------
